                                  MODFLOW-NWT-SWR1 
      U.S. GEOLOGICAL SURVEY MODULAR FINITE-DIFFERENCE GROUNDWATER-FLOW MODEL
                            VERSION 1.2.0 03/01/2020
                    BASED ON MODFLOW-2005 VERSION 1.12.00 02/03/2017

 LIST FILE: sagehen_50m.list
                         UNIT    2

 OPENING sagehen_50m.dis
 FILE TYPE:DIS   UNIT   11   STATUS:OLD    
 FORMAT:FORMATTED              ACCESS:SEQUENTIAL          

 OPENING sagehen_50m.bas
 FILE TYPE:BAS6   UNIT   13   STATUS:OLD    
 FORMAT:FORMATTED              ACCESS:SEQUENTIAL          

 OPENING sagehen_50m.upw
 FILE TYPE:UPW   UNIT   31   STATUS:OLD    
 FORMAT:FORMATTED              ACCESS:SEQUENTIAL          

 OPENING sagehen_50m.nwt
 FILE TYPE:NWT   UNIT   32   STATUS:OLD    
 FORMAT:FORMATTED              ACCESS:SEQUENTIAL          

 OPENING sagehen_50m.oc
 FILE TYPE:OC   UNIT   14   STATUS:OLD    
 FORMAT:FORMATTED              ACCESS:SEQUENTIAL          

 OPENING sagehen_50m.uzf
 FILE TYPE:UZF   UNIT   19   STATUS:OLD    
 FORMAT:FORMATTED              ACCESS:SEQUENTIAL          

 OPENING sagehen_50m.sfr
 FILE TYPE:SFR   UNIT   17   STATUS:OLD    
 FORMAT:FORMATTED              ACCESS:SEQUENTIAL          

 OPENING sagehen_50m.hds
 FILE TYPE:DATA(BINARY)   UNIT   51   STATUS:REPLACE
 FORMAT:UNFORMATTED            ACCESS:STREAM              

 BAS -- BASIC PACKAGE, VERSION 1.2.0, 3/01/2020 INPUT READ FROM UNIT   13

 MODFLOW was compiled using mixed precision
 Precision of REAL variables:           6
 Precision of DOUBLE PRECISION variables:          15

 DISCRETIZATION INPUT DATA READ FROM UNIT   11
 # DIS package for MODFLOW-NWT generated by Flopy 3.4.3
    1 LAYERS       160 ROWS       104 COLUMNS
  120 STRESS PERIOD(S) IN SIMULATION
 MODEL TIME UNIT IS DAYS
 MODEL LENGTH UNIT IS METERS
  Confining bed flag for each layer:
   0



                               DELR
 READING ON UNIT   11 WITH FORMAT: (104E15.6)          



                               DELC
 READING ON UNIT   11 WITH FORMAT: (160E15.6)          



           TOP ELEVATION OF LAYER 1
 READING ON UNIT   11 WITH FORMAT: (104E15.6)          



             MODEL LAYER BOTTOM EL. FOR LAYER   1
 READING ON UNIT   11 WITH FORMAT: (104E15.6)          


 STRESS PERIOD     LENGTH       TIME STEPS     MULTIPLIER FOR DELT    SS FLAG
 ----------------------------------------------------------------------------
        1         1.000000          1                    1.000         TR
        2         30.00000         30                    1.000         TR
        3         30.00000         30                    1.000         TR
        4         30.00000         30                    1.000         TR
        5         30.00000         30                    1.000         TR
        6         30.00000         30                    1.000         TR
        7         30.00000         30                    1.000         TR
        8         30.00000         30                    1.000         TR
        9         30.00000         30                    1.000         TR
       10         30.00000         30                    1.000         TR
       11         30.00000         30                    1.000         TR
       12         30.00000         30                    1.000         TR
       13         30.00000         30                    1.000         TR
       14         30.00000         30                    1.000         TR
       15         30.00000         30                    1.000         TR
       16         30.00000         30                    1.000         TR
       17         30.00000         30                    1.000         TR
       18         30.00000         30                    1.000         TR
       19         30.00000         30                    1.000         TR
       20         30.00000         30                    1.000         TR
       21         30.00000         30                    1.000         TR
       22         30.00000         30                    1.000         TR
       23         30.00000         30                    1.000         TR
       24         30.00000         30                    1.000         TR
       25         30.00000         30                    1.000         TR
       26         30.00000         30                    1.000         TR
       27         30.00000         30                    1.000         TR
       28         30.00000         30                    1.000         TR
       29         30.00000         30                    1.000         TR
       30         30.00000         30                    1.000         TR
       31         30.00000         30                    1.000         TR
       32         30.00000         30                    1.000         TR
       33         30.00000         30                    1.000         TR
       34         30.00000         30                    1.000         TR
       35         30.00000         30                    1.000         TR
       36         30.00000         30                    1.000         TR
       37         30.00000         30                    1.000         TR
       38         30.00000         30                    1.000         TR
       39         30.00000         30                    1.000         TR
       40         30.00000         30                    1.000         TR
       41         30.00000         30                    1.000         TR
       42         30.00000         30                    1.000         TR
       43         30.00000         30                    1.000         TR
       44         30.00000         30                    1.000         TR
       45         30.00000         30                    1.000         TR
       46         30.00000         30                    1.000         TR
       47         30.00000         30                    1.000         TR
       48         30.00000         30                    1.000         TR
       49         30.00000         30                    1.000         TR
       50         30.00000         30                    1.000         TR
       51         30.00000         30                    1.000         TR
       52         30.00000         30                    1.000         TR
       53         30.00000         30                    1.000         TR
       54         30.00000         30                    1.000         TR
       55         30.00000         30                    1.000         TR
       56         30.00000         30                    1.000         TR
       57         30.00000         30                    1.000         TR
       58         30.00000         30                    1.000         TR
       59         30.00000         30                    1.000         TR
       60         30.00000         30                    1.000         TR
       61         30.00000         30                    1.000         TR
       62         30.00000         30                    1.000         TR
       63         30.00000         30                    1.000         TR
       64         30.00000         30                    1.000         TR
       65         30.00000         30                    1.000         TR
       66         30.00000         30                    1.000         TR
       67         30.00000         30                    1.000         TR
       68         30.00000         30                    1.000         TR
       69         30.00000         30                    1.000         TR
       70         30.00000         30                    1.000         TR
       71         30.00000         30                    1.000         TR
       72         30.00000         30                    1.000         TR
       73         30.00000         30                    1.000         TR
       74         30.00000         30                    1.000         TR
       75         30.00000         30                    1.000         TR
       76         30.00000         30                    1.000         TR
       77         30.00000         30                    1.000         TR
       78         30.00000         30                    1.000         TR
       79         30.00000         30                    1.000         TR
       80         30.00000         30                    1.000         TR
       81         30.00000         30                    1.000         TR
       82         30.00000         30                    1.000         TR
       83         30.00000         30                    1.000         TR
       84         30.00000         30                    1.000         TR
       85         30.00000         30                    1.000         TR
       86         30.00000         30                    1.000         TR
       87         30.00000         30                    1.000         TR
       88         30.00000         30                    1.000         TR
       89         30.00000         30                    1.000         TR
       90         30.00000         30                    1.000         TR
       91         30.00000         30                    1.000         TR
       92         30.00000         30                    1.000         TR
       93         30.00000         30                    1.000         TR
       94         30.00000         30                    1.000         TR
       95         30.00000         30                    1.000         TR
       96         30.00000         30                    1.000         TR
       97         30.00000         30                    1.000         TR
       98         30.00000         30                    1.000         TR
       99         30.00000         30                    1.000         TR
      100         30.00000         30                    1.000         TR
      101         30.00000         30                    1.000         TR
      102         30.00000         30                    1.000         TR
      103         30.00000         30                    1.000         TR
      104         30.00000         30                    1.000         TR
      105         30.00000         30                    1.000         TR
      106         30.00000         30                    1.000         TR
      107         30.00000         30                    1.000         TR
      108         30.00000         30                    1.000         TR
      109         30.00000         30                    1.000         TR
      110         30.00000         30                    1.000         TR
      111         30.00000         30                    1.000         TR
      112         30.00000         30                    1.000         TR
      113         30.00000         30                    1.000         TR
      114         30.00000         30                    1.000         TR
      115         30.00000         30                    1.000         TR
      116         30.00000         30                    1.000         TR
      117         30.00000         30                    1.000         TR
      118         30.00000         30                    1.000         TR
      119         30.00000         30                    1.000         TR
      120         30.00000         30                    1.000         TR

 TRANSIENT SIMULATION




 # BAS6 package for MODFLOW-NWT generated by Flopy 3.4.3                         
 THE FREE FORMAT OPTION HAS BEEN SELECTED



                     BOUNDARY ARRAY FOR LAYER   1
 READING ON UNIT   13 WITH FORMAT: (104I10)            

 AQUIFER HEAD WILL BE SET TO  -9999.0     AT ALL NO-FLOW NODES (IBOUND=0).



                       INITIAL HEAD FOR LAYER   1
 READING ON UNIT   13 WITH FORMAT: (104E15.6)          
 # OC package for MODFLOW-NWT generated by Flopy 3.4.3

 OUTPUT CONTROL IS SPECIFIED ONLY AT TIME STEPS FOR WHICH OUTPUT IS DESIRED
 COMPACT CELL-BY-CELL BUDGET FILES WILL BE WRITTEN
 AUXILIARY DATA WILL BE SAVED IN CELL-BY-CELL BUDGET FILES
 HEAD PRINT FORMAT CODE IS  15    DRAWDOWN PRINT FORMAT CODE IS   0
 HEADS WILL BE SAVED ON UNIT   51    DRAWDOWNS WILL BE SAVED ON UNIT    0
 # NWT package for MODFLOW-NWT generated by Flopy 3.4.3

 NWT1 -- Newton Solver, VERSION 1.2.0, 3/01/2020
         INPUT READ FROM UNIT 32

 SIMPLE OPTION:
 DEFAULT SOLVER INPUT VALUES REFLECT NEARLY LINEAR MODEL
 ***GMRES linear solver will be used***

   CONVERGENCE CRITERION OF   0.100000E-03 FOR HEAD SOLUTION
   AND A TOLERANCE OF   0.500000E+03 FOR FLOW SOLUTION AND 
   A MAXIMUM OF   100 OUTER ITERATIONS. 


   D-B-D REDUCTION FACTOR OF    0.970000E+00 AND 
   A D-B-D INCREASE FACTOR OF    0.100000E-03 AND 
   A D-B-D RELAXATION OF    0.000000E+00 AND 
   A MOMENTUM FACTOR OF    0.000000E+00 .


 ***BACKTRACKING IS INACTIVE***
 GMRES -- LINEAR SOLUTION BY GMRES PACKAGE 
     adapted for HYDROTHERM by Kipp and others (2008)
     using software originally developed by Saad (1990) 32
     using algorithms described in Saad (2003)

 UPW1 -- UPSTREAM WEIGHTING FLOW PACKAGE, VERSION 1.2.0, 3/01/2020
         INPUT READ FROM UNIT 31

 # UPW package for MODFLOW-NWT generated by Flopy 3.4.3
 No named parameters

   LAYER FLAGS:
 LAYER       LAYTYP          LAYAVG    CHANI           LAYVKA           LAYWET
 ---------------------------------------------------------------------------
    1             1             0     1.000E+00             0             0

   INTERPRETATION OF LAYER FLAGS:
                        INTERBLOCK     HORIZONTAL    DATA IN
         LAYER TYPE   TRANSMISSIVITY   ANISOTROPY   ARRAY VKA   WETTABILITY
 LAYER   (LAYTYP)        (LAYAVG)      (CHANI)     (LAYVKA)       (LAYWET)
 ---------------------------------------------------------------------------
    1   CONVERTIBLE      HARMONIC     1.000E+00    VERTICAL K  NON-WETTABLE



              HYD. COND. ALONG ROWS FOR LAYER   1
 READING ON UNIT   31 WITH FORMAT: (104E15.6)          

      VERTICAL HYD. COND. =   1.00000     FOR LAYER   1



                   SPECIFIC STORAGE FOR LAYER   1
 READING ON UNIT   31 WITH FORMAT: (104E15.6)          

           SPECIFIC YIELD =  0.200000     FOR LAYER   1

 SFR7 -- STREAMFLOW ROUTING PACKAGE, VERSION 1.0.5, 2012-04-05
         INPUT READ FROM UNIT  17
 # SFR package for MODFLOW-NWT generated by Flopy 3.4.3
 No named parameters

 PROCESSING SFR2 OPTIONS

  Some stream information will be read by reach. This option replaces NSTRM<0

 END PROCESSING SFR2 OPTIONS



 NUMBER OF STREAM REACHES IS  231

 NUMBER OF STREAM SEGMENTS IS   28

 NUMBER OF STREAM PARAMETERS IS    0

 NUMBER OF STREAM SEGMENTS DEFINED USING PARAMETERS IS              0

 MAXIMUM ERROR FOR STREAM LEAKAGE RATES IS  1.00E-04

 CONSTANT FOR MANNINGS EQUATION IS  8.6400E+04





 USING DATA INPUT MODIFIED FROM ORIGINAL SFR PROGRAM FOR FARM PACKAGE



   STREAM NETWORK DESCRIPTION: 

   LAYER    ROW    COL   SEGMENT   REACH     LENGTH     STREAMBED     STREAMBED   STREAMBED     STREAMBED
                          NUMBER   NUMBER    IN CELL    TOP ELEV.       SLOPE     THICKNESS   HYDR. CONDUCT.        
   ---------------------------------------------------------------------------------------------------------
       1    123     47       1        1    2.1512E+03   3.4622E+03   4.9751E-02   1.0000E+00   1.0000E-01
       1    122     47       1        2    3.0000E+02   3.3551E+03   2.4708E-01   1.0000E+00   1.0000E-01
       1    121     47       1        3    3.6213E+02   3.2810E+03   2.0730E-01   1.0000E+00   1.0000E-01
       1    120     46       1        4    3.6213E+02   3.2059E+03   1.4786E-01   1.0000E+00   1.0000E-01
       1    120     45       1        5    3.6213E+02   3.1524E+03   9.3256E-02   1.0000E+00   1.0000E-01
       1    119     44       1        6    4.2426E+02   3.1186E+03   1.2066E-01   1.0000E+00   1.0000E-01
       1    118     43       1        7    4.2426E+02   3.0674E+03   7.4068E-02   1.0000E+00   1.0000E-01
       1    117     42       1        8    3.6213E+02   3.0360E+03   1.2149E-01   1.0000E+00   1.0000E-01
       1    116     42       1        9    3.0000E+02   2.9920E+03   2.0377E-01   1.0000E+00   1.0000E-01
       1    115     42       1       10    3.0000E+02   2.9309E+03   1.4246E-01   1.0000E+00   1.0000E-01
       1    114     42       1       11    3.0000E+02   2.8881E+03   4.4191E-02   1.0000E+00   1.0000E-01
       1    113     42       1       12    3.6213E+02   2.8749E+03   5.1155E-02   1.0000E+00   1.0000E-01
       1    112     43       1       13    4.2426E+02   2.8564E+03   4.3664E-02   1.0000E+00   1.0000E-01
       1    111     44       1       14    2.1213E+02   2.8378E+03   1.0000E-03   1.0000E+00   1.0000E-01
       1    119     55       2        1    5.4754E+02   3.1542E+03   1.0750E-01   1.0000E+00   1.0000E-01
       1    118     54       2        2    2.1213E+02   3.0954E+03   1.0000E-03   1.0000E+00   1.0000E-01
       1    117     74       3        1    3.2121E+03   4.3832E+03   9.2993E-03   1.0000E+00   1.0000E-01
       1    118     73       3        2    3.6213E+02   4.3533E+03   3.9487E-02   1.0000E+00   1.0000E-01
       1    119     73       3        3    3.0000E+02   4.3390E+03   7.7540E-02   1.0000E+00   1.0000E-01
       1    120     73       3        4    3.6213E+02   4.3157E+03   1.3481E-01   1.0000E+00   1.0000E-01
       1    121     72       3        5    3.6213E+02   4.2669E+03   1.3623E-01   1.0000E+00   1.0000E-01
       1    121     71       3        6    3.6213E+02   4.2176E+03   4.6679E-01   1.0000E+00   1.0000E-01
       1    122     70       3        7    3.6213E+02   4.0485E+03   1.6635E-01   1.0000E+00   1.0000E-01
       1    122     69       3        8    3.0000E+02   3.9883E+03   2.3759E-01   1.0000E+00   1.0000E-01
       1    122     68       3        9    3.0000E+02   3.9170E+03   3.6369E-01   1.0000E+00   1.0000E-01
       1    122     67       3       10    3.0000E+02   3.8079E+03   2.0235E-01   1.0000E+00   1.0000E-01
       1    122     66       3       11    3.6213E+02   3.7472E+03   7.6194E-02   1.0000E+00   1.0000E-01
       1    121     65       3       12    3.6213E+02   3.7196E+03   1.3172E-01   1.0000E+00   1.0000E-01
       1    121     64       3       13    3.6213E+02   3.6719E+03   3.6195E-02   1.0000E+00   1.0000E-01
       1    120     63       3       14    3.6213E+02   3.6588E+03   1.4088E-01   1.0000E+00   1.0000E-01
       1    120     62       3       15    3.0000E+02   3.6078E+03   1.4957E-01   1.0000E+00   1.0000E-01
       1    120     61       3       16    3.0000E+02   3.5629E+03   1.6326E-01   1.0000E+00   1.0000E-01
       1    120     60       3       17    3.0000E+02   3.5139E+03   1.1800E-01   1.0000E+00   1.0000E-01
       1    120     59       3       18    3.0000E+02   3.4785E+03   4.7530E-01   1.0000E+00   1.0000E-01
       1    120     58       3       19    3.0000E+02   3.3360E+03   3.3020E-01   1.0000E+00   1.0000E-01
       1    120     57       3       20    3.6213E+02   3.2369E+03   1.3876E-01   1.0000E+00   1.0000E-01
       1    119     56       3       21    4.2426E+02   3.1866E+03   1.2690E-01   1.0000E+00   1.0000E-01
       1    118     55       3       22    2.1213E+02   3.1328E+03   1.0000E-03   1.0000E+00   1.0000E-01
       1    117     54       4        1    2.4052E+03   3.0463E+03   1.7771E-02   1.0000E+00   1.0000E-01
       1    116     53       4        2    3.6213E+02   3.0036E+03   6.9849E-02   1.0000E+00   1.0000E-01
       1    115     53       4        3    3.6213E+02   2.9783E+03   6.0503E-02   1.0000E+00   1.0000E-01
       1    114     52       4        4    4.2426E+02   2.9564E+03   6.7531E-02   1.0000E+00   1.0000E-01
       1    113     51       4        5    3.6213E+02   2.9277E+03   5.9527E-02   1.0000E+00   1.0000E-01
       1    113     50       4        6    3.6213E+02   2.9062E+03   5.1227E-02   1.0000E+00   1.0000E-01
       1    112     49       4        7    4.2426E+02   2.8876E+03   4.6582E-02   1.0000E+00   1.0000E-01
       1    111     48       4        8    3.6213E+02   2.8678E+03   3.2760E-02   1.0000E+00   1.0000E-01
       1    111     47       4        9    3.0000E+02   2.8560E+03   4.3607E-02   1.0000E+00   1.0000E-01
       1    111     46       4       10    3.0000E+02   2.8429E+03   2.5638E-02   1.0000E+00   1.0000E-01
       1    111     45       4       11    1.5000E+02   2.8352E+03   1.0000E-03   1.0000E+00   1.0000E-01
       1    110     44       5        1    1.2621E+03   2.8247E+03   1.0526E-02   1.0000E+00   1.0000E-01
       1    109     44       5        2    3.0000E+02   2.8115E+03   4.6657E-02   1.0000E+00   1.0000E-01
       1    108     44       5        3    3.0000E+02   2.7975E+03   4.4546E-02   1.0000E+00   1.0000E-01
       1    107     44       5        4    3.0000E+02   2.7841E+03   4.4307E-02   1.0000E+00   1.0000E-01
       1    106     44       5        5    1.5000E+02   2.7708E+03   1.0000E-03   1.0000E+00   1.0000E-01
       1    106     43       6        1    2.1213E+02   2.7755E+03   1.0000E-03   1.0000E+00   1.0000E-01
       1    105     44       7        1    2.8688E+03   2.7569E+03   6.4574E-03   1.0000E+00   1.0000E-01
       1    104     45       7        2    4.2426E+02   2.7384E+03   4.3661E-02   1.0000E+00   1.0000E-01
       1    103     46       7        3    3.6213E+02   2.7199E+03   3.8346E-02   1.0000E+00   1.0000E-01
       1    102     46       7        4    3.6213E+02   2.7060E+03   4.9026E-02   1.0000E+00   1.0000E-01
       1    101     47       7        5    3.6213E+02   2.6883E+03   3.6182E-02   1.0000E+00   1.0000E-01
       1    100     47       7        6    3.0000E+02   2.6752E+03   4.3664E-02   1.0000E+00   1.0000E-01
       1     99     47       7        7    3.6213E+02   2.6621E+03   4.4446E-02   1.0000E+00   1.0000E-01
       1     98     48       7        8    3.6213E+02   2.6460E+03   3.6126E-02   1.0000E+00   1.0000E-01
       1     97     48       7        9    3.0000E+02   2.6329E+03   4.3452E-02   1.0000E+00   1.0000E-01
       1     96     48       7       10    3.0000E+02   2.6198E+03   4.3730E-02   1.0000E+00   1.0000E-01
       1     95     48       7       11    3.0000E+02   2.6067E+03   4.3668E-02   1.0000E+00   1.0000E-01
       1     94     48       7       12    3.0000E+02   2.5936E+03   4.3922E-02   1.0000E+00   1.0000E-01
       1     93     48       7       13    3.0000E+02   2.5804E+03   4.3647E-02   1.0000E+00   1.0000E-01
       1     92     48       7       14    3.6213E+02   2.5674E+03   5.1272E-02   1.0000E+00   1.0000E-01
       1     91     47       7       15    2.1213E+02   2.5488E+03   1.0000E-03   1.0000E+00   1.0000E-01
       1     99     62       8        1    9.1485E+02   3.4571E+03   6.5184E-02   1.0000E+00   1.0000E-01
       1     98     62       8        2    3.6213E+02   3.3975E+03   1.0758E-01   1.0000E+00   1.0000E-01
       1     97     63       8        3    4.2426E+02   3.3585E+03   7.2444E-02   1.0000E+00   1.0000E-01
       1     96     62       8        4    3.6213E+02   3.3278E+03   2.2065E-01   1.0000E+00   1.0000E-01
       1     95     62       8        5    1.5000E+02   3.2479E+03   1.0000E-03   1.0000E+00   1.0000E-01
       1     97     66       9        1    8.4853E+02   3.5217E+03   5.4764E-02   1.0000E+00   1.0000E-01
       1     96     65       9        2    4.2426E+02   3.4752E+03   3.7689E-01   1.0000E+00   1.0000E-01
       1     95     64       9        3    2.1213E+02   3.3153E+03   1.0000E-03   1.0000E+00   1.0000E-01
       1     94     63      10        1    8.7426E+02   3.1676E+03   9.4624E-02   1.0000E+00   1.0000E-01
       1     93     63      10        2    1.5000E+02   3.0849E+03   1.0000E-03   1.0000E+00   1.0000E-01
       1     92     39      11        1    1.2420E+03   2.9471E+03   4.5411E-02   1.0000E+00   1.0000E-01
       1     91     39      11        2    3.6213E+02   2.8907E+03   3.9535E-01   1.0000E+00   1.0000E-01
       1     90     40      11        3    3.6213E+02   2.7475E+03   1.0409E-01   1.0000E+00   1.0000E-01
       1     89     40      11        4    3.6213E+02   2.7098E+03   4.6440E-01   1.0000E+00   1.0000E-01
       1     88     41      11        5    3.6213E+02   2.5416E+03   2.1460E-01   1.0000E+00   1.0000E-01
       1     87     41      11        6    3.0000E+02   2.4639E+03   4.3664E-02   1.0000E+00   1.0000E-01
       1     86     41      11        7    1.5000E+02   2.4508E+03   1.0000E-03   1.0000E+00   1.0000E-01
       1     87     70      12        1    1.4403E+03   3.3641E+03   2.3618E-02   1.0000E+00   1.0000E-01
       1     87     69      12        2    3.6213E+02   3.3301E+03   1.5097E-01   1.0000E+00   1.0000E-01
       1     88     68      12        3    4.2426E+02   3.2754E+03   2.1017E-01   1.0000E+00   1.0000E-01
       1     89     67      12        4    4.2426E+02   3.1862E+03   1.0833E-01   1.0000E+00   1.0000E-01
       1     90     66      12        5    4.2426E+02   3.1403E+03   1.1585E-01   1.0000E+00   1.0000E-01
       1     91     65      12        6    4.2426E+02   3.0911E+03   7.1903E-02   1.0000E+00   1.0000E-01
       1     92     64      12        7    2.1213E+02   3.0606E+03   1.0000E-03   1.0000E+00   1.0000E-01
       1     85     29      13        1    1.6895E+03   2.9499E+03   3.5684E-02   1.0000E+00   1.0000E-01
       1     84     30      13        2    4.2426E+02   2.8896E+03   2.1337E-01   1.0000E+00   1.0000E-01
       1     83     31      13        3    4.2426E+02   2.7990E+03   2.1228E-01   1.0000E+00   1.0000E-01
       1     82     32      13        4    4.2426E+02   2.7090E+03   2.7662E-01   1.0000E+00   1.0000E-01
       1     81     33      13        5    4.2426E+02   2.5916E+03   4.4891E-01   1.0000E+00   1.0000E-01
       1     80     34      13        6    3.6213E+02   2.4012E+03   1.8630E-01   1.0000E+00   1.0000E-01
       1     79     34      13        7    3.0000E+02   2.3337E+03   8.5654E-02   1.0000E+00   1.0000E-01
       1     78     34      13        8    3.6213E+02   2.3080E+03   5.1559E-02   1.0000E+00   1.0000E-01
       1     77     33      13        9    2.1213E+02   2.2893E+03   1.0000E-03   1.0000E+00   1.0000E-01
       1     83     66      14        1    1.6352E+03   3.4132E+03   3.3202E-02   1.0000E+00   1.0000E-01
       1     84     67      14        2    4.2426E+02   3.3589E+03   9.5147E-02   1.0000E+00   1.0000E-01
       1     85     68      14        3    3.6213E+02   3.3185E+03   3.5315E-02   1.0000E+00   1.0000E-01
       1     86     68      14        4    3.6213E+02   3.3057E+03   1.3697E-01   1.0000E+00   1.0000E-01
       1     87     67      14        5    3.6213E+02   3.2561E+03   1.0785E-01   1.0000E+00   1.0000E-01
       1     88     67      14        6    3.6213E+02   3.2171E+03   1.3983E-01   1.0000E+00   1.0000E-01
       1     89     66      14        7    4.2426E+02   3.1665E+03   1.1506E-01   1.0000E+00   1.0000E-01
       1     90     65      14        8    4.2426E+02   3.1176E+03   9.8516E-02   1.0000E+00   1.0000E-01
       1     91     64      14        9    2.1213E+02   3.0758E+03   1.0000E-03   1.0000E+00   1.0000E-01
       1     92     63      15        1    3.0808E+03   3.0401E+03   3.0690E-04   1.0000E+00   1.0000E-01
       1     92     62      15        2    3.0000E+02   3.0391E+03   1.0000E-04   1.0000E+00   1.0000E-01
       1     92     61      15        3    3.6213E+02   3.0391E+03   1.0000E-04   1.0000E+00   1.0000E-01
       1     91     60      15        4    3.6213E+02   3.0394E+03   2.0390E-01   1.0000E+00   1.0000E-01
       1     91     59      15        5    3.0000E+02   2.9656E+03   1.2686E-01   1.0000E+00   1.0000E-01
       1     91     58      15        6    3.0000E+02   2.9275E+03   3.9113E-02   1.0000E+00   1.0000E-01
       1     91     57      15        7    3.0000E+02   2.9158E+03   1.4601E-01   1.0000E+00   1.0000E-01
       1     91     56      15        8    3.0000E+02   2.8720E+03   1.0000E-04   1.0000E+00   1.0000E-01
       1     91     55      15        9    3.6213E+02   2.8720E+03   1.2045E-01   1.0000E+00   1.0000E-01
       1     92     54      15       10    3.6213E+02   2.8284E+03   2.1521E-01   1.0000E+00   1.0000E-01
       1     92     53      15       11    3.0000E+02   2.7504E+03   4.5739E-02   1.0000E+00   1.0000E-01
       1     92     52      15       12    3.0000E+02   2.7367E+03   1.0349E-01   1.0000E+00   1.0000E-01
       1     92     51      15       13    3.0000E+02   2.7057E+03   2.9619E-01   1.0000E+00   1.0000E-01
       1     92     50      15       14    3.0000E+02   2.6168E+03   1.2819E-01   1.0000E+00   1.0000E-01
       1     92     49      15       15    3.6213E+02   2.5784E+03   5.1307E-02   1.0000E+00   1.0000E-01
       1     91     48      15       16    2.1213E+02   2.5598E+03   1.0000E-03   1.0000E+00   1.0000E-01
       1     90     47      16        1    5.7426E+02   2.5413E+03   1.0000E-03   1.0000E+00   1.0000E-01
       1     75     56      17        1    2.7928E+03   3.2411E+03   1.7050E-02   1.0000E+00   1.0000E-01
       1     76     55      17        2    3.6213E+02   3.1935E+03   5.0150E-02   1.0000E+00   1.0000E-01
       1     77     55      17        3    3.0000E+02   3.1753E+03   4.3689E-02   1.0000E+00   1.0000E-01
       1     78     55      17        4    3.6213E+02   3.1622E+03   3.0344E-02   1.0000E+00   1.0000E-01
       1     79     54      17        5    3.6213E+02   3.1512E+03   5.1032E-02   1.0000E+00   1.0000E-01
       1     80     54      17        6    3.0000E+02   3.1327E+03   7.7867E-02   1.0000E+00   1.0000E-01
       1     81     54      17        7    3.6213E+02   3.1094E+03   1.2916E-01   1.0000E+00   1.0000E-01
       1     82     53      17        8    3.6213E+02   3.0626E+03   6.5686E-02   1.0000E+00   1.0000E-01
       1     83     53      17        9    3.0000E+02   3.0388E+03   1.0905E-01   1.0000E+00   1.0000E-01
       1     84     53      17       10    3.0000E+02   3.0061E+03   1.2369E-01   1.0000E+00   1.0000E-01
       1     85     53      17       11    3.0000E+02   2.9690E+03   6.1601E-02   1.0000E+00   1.0000E-01
       1     86     53      17       12    3.6213E+02   2.9505E+03   7.8656E-02   1.0000E+00   1.0000E-01
       1     87     52      17       13    3.6213E+02   2.9220E+03   1.2541E-01   1.0000E+00   1.0000E-01
       1     88     52      17       14    3.6213E+02   2.8766E+03   2.2627E-01   1.0000E+00   1.0000E-01
       1     89     51      17       15    3.6213E+02   2.7947E+03   2.4072E-01   1.0000E+00   1.0000E-01
       1     89     50      17       16    3.0000E+02   2.7075E+03   4.3055E-01   1.0000E+00   1.0000E-01
       1     89     49      17       17    3.0000E+02   2.5783E+03   9.7489E-02   1.0000E+00   1.0000E-01
       1     89     48      17       18    3.0000E+02   2.5491E+03   4.3664E-02   1.0000E+00   1.0000E-01
       1     89     47      17       19    1.5000E+02   2.5360E+03   1.0000E-03   1.0000E+00   1.0000E-01
       1     89     46      18        1    1.5347E+03   2.5227E+03   1.2070E-02   1.0000E+00   1.0000E-01
       1     88     45      18        2    4.2426E+02   2.5042E+03   4.3670E-02   1.0000E+00   1.0000E-01
       1     87     44      18        3    4.2426E+02   2.4857E+03   4.3296E-02   1.0000E+00   1.0000E-01
       1     86     43      18        4    3.6213E+02   2.4673E+03   3.0689E-02   1.0000E+00   1.0000E-01
       1     86     42      18        5    1.5000E+02   2.4562E+03   1.0000E-03   1.0000E+00   1.0000E-01
       1     85     41      19        1    2.3805E+03   2.4377E+03   7.7815E-03   1.0000E+00   1.0000E-01
       1     84     40      19        2    4.2426E+02   2.4191E+03   4.3662E-02   1.0000E+00   1.0000E-01
       1     83     39      19        3    4.2426E+02   2.4006E+03   4.3664E-02   1.0000E+00   1.0000E-01
       1     82     38      19        4    4.2426E+02   2.3821E+03   4.3664E-02   1.0000E+00   1.0000E-01
       1     81     37      19        5    3.6213E+02   2.3636E+03   3.6176E-02   1.0000E+00   1.0000E-01
       1     80     37      19        6    3.6213E+02   2.3505E+03   5.1160E-02   1.0000E+00   1.0000E-01
       1     79     36      19        7    4.2426E+02   2.3319E+03   4.3655E-02   1.0000E+00   1.0000E-01
       1     78     35      19        8    4.2426E+02   2.3134E+03   4.3669E-02   1.0000E+00   1.0000E-01
       1     77     34      19        9    2.1213E+02   2.2949E+03   1.0000E-03   1.0000E+00   1.0000E-01
       1     76     33      20        1    1.5347E+03   2.2764E+03   9.7260E-03   1.0000E+00   1.0000E-01
       1     75     32      20        2    4.2426E+02   2.2615E+03   2.8419E-02   1.0000E+00   1.0000E-01
       1     74     31      20        3    4.2426E+02   2.2494E+03   8.4974E-02   1.0000E+00   1.0000E-01
       1     73     30      20        4    3.6213E+02   2.2133E+03   3.3699E-02   1.0000E+00   1.0000E-01
       1     73     29      20        5    1.5000E+02   2.2011E+03   1.0000E-03   1.0000E+00   1.0000E-01
       1     63     48      21        1    4.5000E+02   3.0664E+03   2.8996E-02   1.0000E+00   1.0000E-01
       1     63     47      21        2    1.5000E+02   3.0534E+03   1.0000E-03   1.0000E+00   1.0000E-01
       1     58     48      22        1    9.5777E+02   3.1687E+03   2.0207E-02   1.0000E+00   1.0000E-01
       1     59     48      22        2    3.0000E+02   3.1493E+03   1.1021E-01   1.0000E+00   1.0000E-01
       1     60     48      22        3    3.0000E+02   3.1163E+03   1.2672E-01   1.0000E+00   1.0000E-01
       1     61     48      22        4    3.6213E+02   3.0782E+03   5.3787E-02   1.0000E+00   1.0000E-01
       1     62     47      22        5    2.1213E+02   3.0588E+03   1.0000E-03   1.0000E+00   1.0000E-01
       1     63     46      23        1    2.2224E+03   3.0402E+03   6.0316E-03   1.0000E+00   1.0000E-01
       1     63     45      23        2    3.6213E+02   3.0268E+03   5.1082E-02   1.0000E+00   1.0000E-01
       1     64     44      23        3    3.6213E+02   3.0083E+03   3.6176E-02   1.0000E+00   1.0000E-01
       1     64     43      23        4    3.0000E+02   2.9952E+03   4.5264E-02   1.0000E+00   1.0000E-01
       1     64     42      23        5    3.0000E+02   2.9817E+03   3.6005E-02   1.0000E+00   1.0000E-01
       1     64     41      23        6    3.6213E+02   2.9709E+03   6.4109E-02   1.0000E+00   1.0000E-01
       1     63     40      23        7    4.2426E+02   2.9476E+03   9.6763E-02   1.0000E+00   1.0000E-01
       1     62     39      23        8    4.2426E+02   2.9066E+03   1.6192E-01   1.0000E+00   1.0000E-01
       1     63     38      23        9    4.2426E+02   2.8379E+03   7.7593E-02   1.0000E+00   1.0000E-01
       1     64     37      23       10    4.2426E+02   2.8050E+03   3.3709E-01   1.0000E+00   1.0000E-01
       1     65     36      23       11    2.1213E+02   2.6620E+03   1.0000E-03   1.0000E+00   1.0000E-01
       1     55     35      24        1    7.6847E+02   2.9535E+03   1.7046E-02   1.0000E+00   1.0000E-01
       1     56     35      24        2    3.0000E+02   2.9404E+03   4.3664E-02   1.0000E+00   1.0000E-01
       1     57     35      24        3    3.0000E+02   2.9273E+03   4.3664E-02   1.0000E+00   1.0000E-01
       1     58     35      24        4    1.5000E+02   2.9142E+03   1.0000E-03   1.0000E+00   1.0000E-01
       1     34     32      25        1    3.9477E+03   3.2882E+03   6.4966E-03   1.0000E+00   1.0000E-01
       1     35     32      25        2    3.0000E+02   3.2626E+03   1.2992E-01   1.0000E+00   1.0000E-01
       1     36     32      25        3    3.6213E+02   3.2236E+03   6.4666E-02   1.0000E+00   1.0000E-01
       1     37     33      25        4    3.6213E+02   3.2002E+03   3.6282E-02   1.0000E+00   1.0000E-01
       1     38     33      25        5    3.6213E+02   3.1870E+03   5.1046E-02   1.0000E+00   1.0000E-01
       1     39     34      25        6    4.2426E+02   3.1685E+03   4.3664E-02   1.0000E+00   1.0000E-01
       1     40     35      25        7    4.2426E+02   3.1500E+03   4.3671E-02   1.0000E+00   1.0000E-01
       1     41     36      25        8    3.6213E+02   3.1315E+03   3.6180E-02   1.0000E+00   1.0000E-01
       1     42     36      25        9    3.0000E+02   3.1184E+03   4.3663E-02   1.0000E+00   1.0000E-01
       1     43     36      25       10    3.0000E+02   3.1053E+03   4.3660E-02   1.0000E+00   1.0000E-01
       1     44     36      25       11    3.0000E+02   3.0922E+03   4.3672E-02   1.0000E+00   1.0000E-01
       1     45     36      25       12    3.0000E+02   3.0791E+03   4.3669E-02   1.0000E+00   1.0000E-01
       1     46     36      25       13    3.0000E+02   3.0660E+03   4.4292E-02   1.0000E+00   1.0000E-01
       1     47     36      25       14    3.0000E+02   3.0527E+03   4.2963E-02   1.0000E+00   1.0000E-01
       1     48     36      25       15    3.0000E+02   3.0398E+03   4.3684E-02   1.0000E+00   1.0000E-01
       1     49     36      25       16    3.0000E+02   3.0267E+03   4.3685E-02   1.0000E+00   1.0000E-01
       1     50     36      25       17    3.0000E+02   3.0136E+03   4.3663E-02   1.0000E+00   1.0000E-01
       1     51     36      25       18    3.0000E+02   3.0005E+03   4.3666E-02   1.0000E+00   1.0000E-01
       1     52     36      25       19    3.0000E+02   2.9874E+03   4.3664E-02   1.0000E+00   1.0000E-01
       1     53     36      25       20    3.0000E+02   2.9743E+03   4.3662E-02   1.0000E+00   1.0000E-01
       1     54     36      25       21    3.0000E+02   2.9612E+03   4.3665E-02   1.0000E+00   1.0000E-01
       1     55     36      25       22    3.0000E+02   2.9481E+03   4.3664E-02   1.0000E+00   1.0000E-01
       1     56     36      25       23    3.0000E+02   2.9350E+03   4.3663E-02   1.0000E+00   1.0000E-01
       1     57     36      25       24    3.0000E+02   2.9219E+03   4.3663E-02   1.0000E+00   1.0000E-01
       1     58     36      25       25    1.5000E+02   2.9088E+03   1.0000E-03   1.0000E+00   1.0000E-01
       1     59     36      26        1    1.5728E+03   2.8957E+03   8.3286E-03   1.0000E+00   1.0000E-01
       1     60     36      26        2    3.6213E+02   2.8826E+03   5.5217E-02   1.0000E+00   1.0000E-01
       1     61     37      26        3    4.2426E+02   2.8626E+03   1.4722E-02   1.0000E+00   1.0000E-01
       1     62     36      26        4    3.6213E+02   2.8564E+03   1.2165E-01   1.0000E+00   1.0000E-01
       1     63     36      26        5    3.6213E+02   2.8123E+03   1.0727E-01   1.0000E+00   1.0000E-01
       1     64     35      26        6    3.6213E+02   2.7735E+03   4.0722E-01   1.0000E+00   1.0000E-01
       1     65     35      26        7    1.5000E+02   2.6260E+03   1.0000E-03   1.0000E+00   1.0000E-01
       1     66     35      27        1    1.9572E+03   2.5944E+03   9.4643E-03   1.0000E+00   1.0000E-01
       1     67     34      27        2    4.2426E+02   2.5759E+03   1.0066E-01   1.0000E+00   1.0000E-01
       1     68     33      27        3    4.2426E+02   2.5332E+03   3.5746E-01   1.0000E+00   1.0000E-01
       1     69     32      27        4    4.2426E+02   2.3815E+03   1.2223E-01   1.0000E+00   1.0000E-01
       1     70     31      27        5    3.6213E+02   2.3296E+03   1.8714E-01   1.0000E+00   1.0000E-01
       1     71     31      27        6    3.6213E+02   2.2619E+03   1.3473E-01   1.0000E+00   1.0000E-01
       1     72     30      27        7    3.6213E+02   2.2131E+03   3.8547E-02   1.0000E+00   1.0000E-01
       1     72     29      27        8    1.5000E+02   2.1991E+03   1.0000E-03   1.0000E+00   1.0000E-01
       1     72     28      28        1    5.2079E+02   2.1889E+03   1.0000E-04   1.0000E+00   1.0000E-01
       1     72     27      28        2    1.5000E+02   2.1889E+03   1.0000E-03   1.0000E+00   1.0000E-01




 UZF1 -- UNSATURATED FLOW PACKAGE, VERSION 1.5, 09/10/2019
         INPUT READ FROM UNIT 19
 # UZF package for MODFLOW-NWT generated by Flopy 3.4.3
 No named parameters



            AREAL EXTENT OF UZ FLOW
 READING ON UNIT   19 WITH FORMAT: (104I10)            
 OPTION 1 -- RECHARGE IN UZF TO TOP LAYER ONLY 



            ROUTING OVERLAND RUNOFF
 READING ON UNIT   19 WITH FORMAT: (104I10)            

     SATURATED VERTICAL K =   1.00000    

     BROOKS-COREY EPSILON =   3.50000    

  SATURATED WATER CONTENT =  0.250000    

    INITIAL WATER CONTENT =  0.200000    
1
                            STRESS PERIOD NO.    1, LENGTH =   1.000000    
                            -----------------------------------------------

                              NUMBER OF TIME STEPS =     1

                               MULTIPLIER FOR DELT =     1.000

                            INITIAL TIME STEP SIZE =   1.000000    



 CLASSIFICATION & COUNT OF STREAM SEGMENTS BASED ON SOURCE OF INFLOW:

                HEADWATER     DIVERSION     RECEIVES TRIBUTARY FLOW
                ---------     ---------     -----------------------
                    15              0              13



                    INPUT DATA FOR EACH STREAM SEGMENT
 ---------------------------------------------------------------------------------------------

 SEGMENT    SEG.     INFLOW   OVERLAND   STREAM    STREAM   ICALC  OUTFLOW  DIVERSION PRIORITY
    NO.    LENGTH     RATE     RUNOFF      ET       PPT.    METH.  TO SEG.  FROM SEG.    NO.

      1  6.647E+03 1.000E+00 0.000E+00 0.000E+00 0.000E+00    1        5        0        0
      2  7.597E+02 1.000E+00 0.000E+00 0.000E+00 0.000E+00    1        4        0        0
      3  1.017E+04 1.000E+00 0.000E+00 0.000E+00 0.000E+00    1        4        0        0
      4  5.814E+03 1.000E+00 0.000E+00 0.000E+00 0.000E+00    1        5        0        0
      5  2.312E+03 1.000E+00 0.000E+00 0.000E+00 0.000E+00    1        7        0        0
      6  2.121E+02 1.000E+00 0.000E+00 0.000E+00 0.000E+00    1        7        0        0
      7  7.478E+03 1.000E+00 0.000E+00 0.000E+00 0.000E+00    1       16        0        0
      8  2.213E+03 1.000E+00 0.000E+00 0.000E+00 0.000E+00    1       10        0        0
      9  1.485E+03 1.000E+00 0.000E+00 0.000E+00 0.000E+00    1       10        0        0
     10  1.024E+03 1.000E+00 0.000E+00 0.000E+00 0.000E+00    1       15        0        0
     11  3.141E+03 1.000E+00 0.000E+00 0.000E+00 0.000E+00    1       19        0        0
     12  3.712E+03 1.000E+00 0.000E+00 0.000E+00 0.000E+00    1       15        0        0
     13  4.623E+03 1.000E+00 0.000E+00 0.000E+00 0.000E+00    1       20        0        0
     14  4.569E+03 1.000E+00 0.000E+00 0.000E+00 0.000E+00    1       15        0        0
     15  7.804E+03 1.000E+00 0.000E+00 0.000E+00 0.000E+00    1       16        0        0
     16  5.743E+02 1.000E+00 0.000E+00 0.000E+00 0.000E+00    1       18        0        0
     17  8.602E+03 1.000E+00 0.000E+00 0.000E+00 0.000E+00    1       18        0        0
     18  2.895E+03 1.000E+00 0.000E+00 0.000E+00 0.000E+00    1       19        0        0
     19  5.438E+03 1.000E+00 0.000E+00 0.000E+00 0.000E+00    1       20        0        0
     20  2.895E+03 1.000E+00 0.000E+00 0.000E+00 0.000E+00    1       28        0        0
     21  6.000E+02 1.000E+00 0.000E+00 0.000E+00 0.000E+00    1       23        0        0
     22  2.132E+03 1.000E+00 0.000E+00 0.000E+00 0.000E+00    1       23        0        0
     23  5.818E+03 1.000E+00 0.000E+00 0.000E+00 0.000E+00    1       27        0        0
     24  1.518E+03 1.000E+00 0.000E+00 0.000E+00 0.000E+00    1       26        0        0
     25  1.149E+04 1.000E+00 0.000E+00 0.000E+00 0.000E+00    1       26        0        0
     26  3.596E+03 1.000E+00 0.000E+00 0.000E+00 0.000E+00    1       27        0        0
     27  4.466E+03 1.000E+00 0.000E+00 0.000E+00 0.000E+00    1       28        0        0
     28  6.708E+02 1.000E+00 0.000E+00 0.000E+00 0.000E+00    1        0        0        0


         STREAMBED PROPERTIES AND STREAM DIMENSIONS

 SEGMENT     WIDTH OF STREAM     DEPTH OF STREAM    STREAM ROUGHNESS
    No.     UPPER     LOWER     UPPER     LOWER     CHANNEL      BANK

     1    1.000E+01 1.000E+01                      4.000E-02
     2    1.000E+01 1.000E+01                      4.000E-02
     3    1.000E+01 1.000E+01                      4.000E-02
     4    1.000E+01 1.000E+01                      4.000E-02
     5    1.000E+01 1.000E+01                      4.000E-02
     6    1.000E+01 1.000E+01                      4.000E-02
     7    1.000E+01 1.000E+01                      4.000E-02
     8    1.000E+01 1.000E+01                      4.000E-02
     9    1.000E+01 1.000E+01                      4.000E-02
    10    1.000E+01 1.000E+01                      4.000E-02
    11    1.000E+01 1.000E+01                      4.000E-02
    12    1.000E+01 1.000E+01                      4.000E-02
    13    1.000E+01 1.000E+01                      4.000E-02
    14    1.000E+01 1.000E+01                      4.000E-02
    15    1.000E+01 1.000E+01                      4.000E-02
    16    1.000E+01 1.000E+01                      4.000E-02
    17    1.000E+01 1.000E+01                      4.000E-02
    18    1.000E+01 1.000E+01                      4.000E-02
    19    1.000E+01 1.000E+01                      4.000E-02
    20    1.000E+01 1.000E+01                      4.000E-02
    21    1.000E+01 1.000E+01                      4.000E-02
    22    1.000E+01 1.000E+01                      4.000E-02
    23    1.000E+01 1.000E+01                      4.000E-02
    24    1.000E+01 1.000E+01                      4.000E-02
    25    1.000E+01 1.000E+01                      4.000E-02
    26    1.000E+01 1.000E+01                      4.000E-02
    27    1.000E+01 1.000E+01                      4.000E-02
    28    1.000E+01 1.000E+01                      4.000E-02






            AREAL INFILTRATION RATE
 READING ON UNIT   19 WITH FORMAT: (104E15.6)          

 SOLVING FOR HEAD 

    ------------------------------------------------
       NWT REQUIRED            6 OUTER ITERATIONS 
       AND A TOTAL OF          6 INNER ITERATIONS.
    ------------------------------------------------

 OUTPUT CONTROL FOR STRESS PERIOD    1   TIME STEP    1
    PRINT HEAD FOR ALL LAYERS
    PRINT BUDGET
    SAVE HEAD FOR ALL LAYERS
    SAVE BUDGET


UNSATURATED ZONE PACKAGE VOLUMETRIC BUDGET FOR  TIME STEP     1 STRESS PERIOD    1
  ------------------------------------------------------------------------------



     CUMULATIVE VOLUMES      L**3       RATES FOR THIS TIME STEP      L**3/T
     ------------------                 ------------------------

           IN:                                      IN:
           ---                                      ---
        INFILTRATION =    15206064.2675          INFILTRATION =    15206064.2675

          OUT:                                     OUT:
          ----                                     ----
              UZF ET =       0.0000E+00                UZF ET =       0.0000E+00
        UZF RECHARGE =    15206064.2675          UZF RECHARGE =    15206064.2675

            IN - OUT =       0.0000E+00              IN - OUT =       0.0000E+00

          STORAGE:                                 STORAGE:
          --------                                 --------
      STORAGE CHANGE =       0.0000E+00        STORAGE CHANGE =       0.0000E+00

 PERCENT DISCREPANCY IS DIFFERENCE BETWEEN IN-OUT MINUS CHANGE IN STORAGE
 DIVIDED BY THE AVERAGE OF IN AND OUT TIMES 100

 PERCENT DISCREPANCY =           0.00     PERCENT DISCREPANCY =           0.00






1
              HEAD IN LAYER   1 AT END OF TIME STEP   1 IN STRESS PERIOD    1
  ---------------------------------------------------------------------------

          1      2      3      4      5      6      7      8      9     10
         11     12     13     14     15     16     17     18     19     20
         21     22     23     24     25     26     27     28     29     30
         31     32     33     34     35     36     37     38     39     40
         41     42     43     44     45     46     47     48     49     50
         51     52     53     54     55     56     57     58     59     60
         61     62     63     64     65     66     67     68     69     70
         71     72     73     74     75     76     77     78     79     80
         81     82     83     84     85     86     87     88     89     90
         91     92     93     94     95     96     97     98     99    100
        101    102    103    104
 .........................................................................
   1  ****** ****** ****** ****** ****** ****** ****** ****** ****** ******
      ****** ****** ****** ****** ****** ****** ****** ****** ****** ******
      ****** ****** ****** ****** ****** ****** ****** ****** ****** ******
      ****** ****** ****** ****** ****** ****** ****** ****** ****** ******
      ****** ****** ****** ****** ****** ****** ****** ****** ****** ******
      ****** ****** ****** ****** ****** ****** ****** ****** ****** ******
      ****** ****** ****** ****** ****** ****** ****** ****** ****** ******
      ****** ****** ****** ****** ****** ****** ****** ****** ****** ******
      ****** ****** ****** ****** ****** ****** ****** ****** ****** ******
      ****** ****** ****** ****** ****** ****** ****** ****** ****** ******
      ****** ****** ****** ******
   2  ****** ****** ****** ****** ****** ****** ****** ****** ****** ******
      ****** ****** ****** ****** ****** ****** ****** ****** ****** ******
      ****** ****** ****** ****** ****** ****** ****** ****** ****** ******
      ****** ****** ****** ****** ****** ****** ****** ****** ****** ******
      ****** ****** ****** ****** ****** ****** ****** ****** ****** ******
      ****** ****** ****** ****** ****** ****** ****** ****** ****** ******
      ****** ****** ****** ****** ****** ****** ****** ****** ****** ******
      ****** ****** ****** ****** ****** ****** ****** ****** ****** ******
      ****** ****** ****** ****** ****** ****** ****** ****** ****** ******
      ****** ****** ****** ****** ****** ****** ****** ****** ****** ******
      ****** ****** ****** ******
   3  ****** ****** ****** ****** ****** ****** ****** ****** ****** ******
      ****** ****** ****** ****** ****** ****** ****** ****** ****** ******
      ****** ****** ****** ****** ****** ****** ****** ****** ****** ******
      ****** ****** ****** ****** ****** ****** ****** ****** ****** ******
      ****** ****** ****** ****** ****** ****** ****** ****** ****** ******
      ****** ****** ****** ****** ****** ****** ****** ****** ****** ******
      ****** ****** ****** ****** ****** ****** ****** ****** ****** ******
      ****** ****** ****** ****** ****** ****** ****** ****** ****** ******
      ****** ****** ****** ****** ****** ****** ****** ****** ****** ******
      ****** ****** ****** ****** ****** ****** ****** ****** ****** ******
      ****** ****** ****** ******
   4  ****** ****** ****** ****** ****** ****** ****** ****** ****** ******
      ****** ****** ****** ****** ****** ****** ****** ****** ****** ******
      ****** ****** ****** ****** ****** ****** ****** ****** ****** ******
      ****** ****** ****** ****** ****** ****** ****** ****** ****** ******
      ****** ****** ****** ****** ****** ****** ****** ****** ****** ******
      ****** ****** ****** ****** ****** ****** ****** ****** ****** ******
      ****** ****** ****** ****** ****** ****** ****** ****** ****** ******
      ****** ****** ****** ****** ****** ****** ****** ****** ****** ******
      ****** ****** ****** ****** ****** ****** ****** ****** ****** ******
      ****** ****** ****** ****** ****** ****** ****** ****** ****** ******
      ****** ****** ****** ******
   5  ****** ****** ****** ****** ****** ****** ****** ****** ****** ******
      ****** ****** ****** ****** ****** ****** ****** ****** ****** ******
      ****** ****** ****** ****** ****** ****** ****** ****** ****** ******
      ****** ****** ****** ****** ****** ****** ****** ****** ****** ******
      ****** ****** ****** ****** ****** ****** ****** ****** ****** ******
      ****** ****** ****** ****** ****** ****** ****** ****** ****** ******
      ****** ****** ****** ****** ****** ****** ****** ****** ****** ******
      ****** ****** ****** ****** ****** ****** ****** ****** ****** ******
      ****** ****** ****** ****** ****** ****** ****** ****** ****** ******
      ****** ****** ****** ****** ****** ****** ****** ****** ****** ******
      ****** ****** ****** ******
   6  ****** ****** ****** ****** ****** ****** ****** ****** ****** ******
      ****** ****** ****** ****** ****** ****** ****** ****** ****** ******
      ****** ****** ****** ****** ****** ****** ****** ****** ****** ******
      ****** ****** ****** ****** ****** ****** ****** ****** ****** ******
      ****** ****** ****** ****** ****** ****** ****** ****** ****** ******
      ****** ****** ****** ****** ****** ****** ****** ****** ****** ******
      ****** ****** ****** ****** ****** ****** ****** ****** ****** ******
      ****** ****** ****** ****** ****** ****** ****** ****** ****** ******
      ****** ****** ****** ****** ****** ****** ****** ****** ****** ******
      ****** ****** ****** ****** ****** ****** ****** ****** ****** ******
      ****** ****** ****** ******
   7  ****** ****** ****** ****** ****** ****** ****** ****** ****** ******
      ****** ****** ****** ****** ****** ****** ****** ****** ****** ******
      ****** ****** ****** ****** ****** ****** ****** ****** ****** ******
      ****** ****** ****** ****** ****** ****** ****** ****** ****** ******
      ****** ****** ****** ****** ****** ****** ****** ****** ****** ******
      ****** ****** ****** ****** ****** ****** ****** ****** ****** ******
      ****** ****** ****** ****** ****** ****** ****** ****** ****** ******
      ****** ****** ****** ****** ****** ****** ****** ****** ****** ******
      ****** ****** ****** ****** ****** ****** ****** ****** ****** ******
      ****** ****** ****** ****** ****** ****** ****** ****** ****** ******
      ****** ****** ****** ******
   8  ****** ****** ****** ****** ****** ****** ****** ****** ****** ******
      ****** ****** ****** ****** ****** ****** ****** ****** ****** ******
      ****** ****** ****** ****** ****** ****** ****** ****** ****** ******
      ****** ****** ****** ****** ****** ****** ****** ****** ****** ******
      ****** ****** ****** ****** ****** ****** ****** ****** ****** ******
      ****** ****** ****** ****** ****** ****** ****** ****** ****** ******
      ****** ****** ****** ****** ****** ****** ****** ****** ****** ******
      ****** ****** ****** ****** ****** ****** ****** ****** ****** ******
      ****** ****** ****** ****** ****** ****** ****** ****** ****** ******
      ****** ****** ****** ****** ****** ****** ****** ****** ****** ******
      ****** ****** ****** ******
   9  ****** ****** ****** ****** ****** ****** ****** ****** ****** ******
      ****** ****** ****** ****** ****** ****** ****** ****** ****** ******
      ****** ****** ****** ****** ****** ****** ****** ****** ****** ******
      ****** ****** ****** ****** ****** ****** ****** ****** ****** ******
      ****** ****** ****** ****** ****** ****** ****** ****** ****** ******
      ****** ****** ****** ****** ****** ****** ****** ****** ****** ******
      ****** ****** ****** ****** ****** ****** ****** ****** ****** ******
      ****** ****** ****** ****** ****** ****** ****** ****** ****** ******
      ****** ****** ****** ****** ****** ****** ****** ****** ****** ******
      ****** ****** ****** ****** ****** ****** ****** ****** ****** ******
      ****** ****** ****** ******
  10  ****** ****** ****** ****** ****** ****** ****** ****** ****** ******
      ****** ****** ****** ****** ****** ****** ****** ****** ****** ******
      ****** ****** ****** ****** ****** ****** ****** ****** ****** ******
      ****** ****** ****** ****** ****** ****** ****** ****** ****** ******
      ****** ****** ****** ****** ****** ****** ****** ****** ****** ******
      ****** ****** ****** ****** ****** ****** ****** ****** ****** ******
      ****** ****** ****** ****** ****** ****** ****** ****** ****** ******
      ****** ****** ****** ****** ****** ****** ****** ****** ****** ******
      ****** ****** ****** ****** ****** ****** ****** ****** ****** ******
      ****** ****** ****** ****** ****** ****** ****** ****** ****** ******
      ****** ****** ****** ******
  11  ****** ****** ****** ****** ****** ****** ****** ****** ****** ******
      ****** ****** ****** ****** ****** ****** ****** ****** ****** ******
      ****** ****** ****** ****** ****** ****** ****** ****** ****** ******
      ****** ****** ****** ****** ****** ****** ****** ****** ****** ******
      ****** ****** ****** ****** ****** ****** ****** ****** ****** ******
      ****** ****** ****** ****** ****** ****** ****** ****** ****** ******
      ****** ****** ****** ****** ****** ****** ****** ****** ****** ******
      ****** ****** ****** ****** ****** ****** ****** ****** ****** ******
      ****** ****** ****** ****** ****** ****** ****** ****** ****** ******
      ****** ****** ****** ****** ****** ****** ****** ****** ****** ******
      ****** ****** ****** ******
  12  ****** ****** ****** ****** ****** ****** ****** ****** ****** ******
      ****** ****** ****** ****** ****** ****** ****** ****** ****** ******
      ****** ****** ****** ****** ****** ****** ****** ****** ****** ******
      ****** ****** ****** ****** ****** ****** ****** ****** ****** ******
      ****** ****** ****** ****** ****** ****** ****** ****** ****** ******
      ****** ****** ****** ****** ****** ****** ****** ****** ****** ******
      ****** ****** ****** ****** ****** ****** ****** ****** ****** ******
      ****** ****** ****** ****** ****** ****** ****** ****** ****** ******
      ****** ****** ****** ****** ****** ****** ****** ****** ****** ******
      ****** ****** ****** ****** ****** ****** ****** ****** ****** ******
      ****** ****** ****** ******
  13  ****** ****** ****** ****** ****** ****** ****** ****** ****** ******
      ****** ****** ****** ****** ****** ****** ****** ****** ****** ******
      ****** ****** ****** ****** ****** ****** ****** ****** ****** ******
      ****** ****** ****** ****** ****** ****** ****** ****** ****** ******
      ****** ****** ****** ****** ****** ****** ****** ****** ****** ******
      ****** ****** ****** ****** ****** ****** ****** ****** ****** ******
      ****** ****** ****** ****** ****** ****** ****** ****** ****** ******
      ****** ****** ****** ****** ****** ****** ****** ****** ****** ******
      ****** ****** ****** ****** ****** ****** ****** ****** ****** ******
      ****** ****** ****** ****** ****** ****** ****** ****** ****** ******
      ****** ****** ****** ******
  14  ****** ****** ****** ****** ****** ****** ****** ****** ****** ******
      ****** ****** ****** ****** ****** ****** ****** ****** ****** ******
      ****** ****** ****** ****** ****** ****** ****** ****** ****** ******
      ****** ****** ****** ****** ****** ****** ****** ****** ****** ******
      ****** ****** ****** ****** ****** ****** ****** ****** ****** ******
      ****** ****** ****** ****** ****** ****** ****** ****** ****** ******
      ****** ****** ****** ****** ****** ****** ****** ****** ****** ******
      ****** ****** ****** ****** ****** ****** ****** ****** ****** ******
      ****** ****** ****** ****** ****** ****** ****** ****** ****** ******
      ****** ****** ****** ****** ****** ****** ****** ****** ****** ******
      ****** ****** ****** ******
  15  ****** ****** ****** ****** ****** ****** ****** ****** ****** ******
      ****** ****** ****** ****** ****** ****** ****** ****** ****** ******
      ****** ****** ****** ****** ****** ****** ****** ****** ****** ******
      ****** ****** ****** ****** ****** ****** ****** ****** ****** ******
      ****** ****** ****** ****** ****** ****** ****** ****** ****** ******
      ****** ****** ****** ****** ****** ****** ****** ****** ****** ******
      ****** ****** ****** ****** ****** ****** ****** ****** ****** ******
      ****** ****** ****** ****** ****** ****** ****** ****** ****** ******
      ****** ****** ****** ****** ****** ****** ****** ****** ****** ******
      ****** ****** ****** ****** ****** ****** ****** ****** ****** ******
      ****** ****** ****** ******
  16  ****** ****** ****** ****** ****** ****** ****** ****** ****** ******
      ****** ****** ****** ****** ****** ****** ****** ****** ****** ******
      ****** ****** ****** ****** ****** ****** ****** ****** ****** ******
      ****** ****** ****** ****** ****** ****** ****** ****** ****** ******
      ****** ****** ****** ****** ****** ****** ****** ****** ****** ******
      ****** ****** ****** ****** ****** ****** ****** ****** ****** ******
      ****** ****** ****** ****** ****** ****** ****** ****** ****** ******
      ****** ****** ****** ****** ****** ****** ****** ****** ****** ******
      ****** ****** ****** ****** ****** ****** ****** ****** ****** ******
      ****** ****** ****** ****** ****** ****** ****** ****** ****** ******
      ****** ****** ****** ******
  17  ****** ****** ****** ****** ****** ****** ****** ****** ****** ******
      ****** ****** ****** ****** ****** ****** ****** ****** ****** ******
      ****** ****** ****** ****** ****** ****** ****** ****** ****** ******
      ****** ****** ****** ****** ****** ****** ****** ****** ****** ******
      ****** ****** ****** ****** ****** ****** ****** ****** ****** ******
      ****** ****** ****** ****** ****** ****** ****** ****** ****** ******
      ****** ****** ****** ****** ****** ****** ****** ****** ****** ******
      ****** ****** ****** ****** ****** ****** ****** ****** ****** ******
      ****** ****** ****** ****** ****** ****** ****** ****** ****** ******
      ****** ****** ****** ****** ****** ****** ****** ****** ****** ******
      ****** ****** ****** ******
  18  ****** ****** ****** ****** ****** ****** ****** ****** ****** ******
      ****** ****** ****** ****** ****** ****** ****** ****** ****** ******
      ****** ****** ****** ****** ****** ****** ****** ****** ****** ******
      ****** ****** ****** ****** ****** ****** ****** ****** ****** ******
      ****** ****** ****** ****** ****** ****** ****** ****** ****** ******
      ****** ****** ****** ****** ****** ****** ****** ****** ****** ******
      ****** ****** ****** ****** ****** ****** ****** ****** ****** ******
      ****** ****** ****** ****** ****** ****** ****** ****** ****** ******
      ****** ****** ****** ****** ****** ****** ****** ****** ****** ******
      ****** ****** ****** ****** ****** ****** ****** ****** ****** ******
      ****** ****** ****** ******
  19  ****** ****** ****** ****** ****** ****** ****** ****** ****** ******
      ****** ****** ****** ****** ****** ****** ****** ****** ****** ******
      ****** ****** ****** ****** ****** ****** ****** ****** ****** ******
      ****** ****** ****** ****** ****** ****** ****** ****** ****** ******
      ****** ****** ****** ****** ****** ****** ****** ****** ****** ******
      ****** ****** ****** ****** ****** ****** ****** ****** ****** ******
      ****** ****** ****** ****** ****** ****** ****** ****** ****** ******
      ****** ****** ****** ****** ****** ****** ****** ****** ****** ******
      ****** ****** ****** ****** ****** ****** ****** ****** ****** ******
      ****** ****** ****** ****** ****** ****** ****** ****** ****** ******
      ****** ****** ****** ******
  20  ****** ****** ****** ****** ****** ****** ****** ****** ****** ******
      ****** ****** ****** ****** ****** ****** ****** ****** ****** ******
      ****** ****** ****** ****** ****** ****** ****** ****** ****** ******
      ****** ****** ****** ****** ****** ****** ****** ****** ****** ******
      ****** ****** ****** ****** ****** ****** ****** ****** ****** ******
      ****** ****** ****** ****** ****** ****** ****** ****** ****** ******
      ****** ****** ****** ****** ****** ****** ****** ****** ****** ******
      ****** ****** ****** ****** ****** ****** ****** ****** ****** ******
      ****** ****** ****** ****** ****** ****** ****** ****** ****** ******
      ****** ****** ****** ****** ****** ****** ****** ****** ****** ******
      ****** ****** ****** ******
  21  ****** ****** ****** ****** ****** ****** ****** ****** ****** ******
      ****** ****** ****** ****** ****** ****** ****** ****** ****** ******
      ****** ****** ****** ****** ****** ****** ****** ****** ****** ******
      ****** ****** ****** ****** ****** ****** ****** ****** ****** ******
      ****** ****** ****** ****** ****** ****** ****** ****** ****** ******
      ****** ****** ****** ****** ****** ****** ****** ****** ****** ******
      ****** ****** ****** ****** ****** ****** ****** ****** ****** ******
      ****** ****** ****** ****** ****** ****** ****** ****** ****** ******
      ****** ****** ****** ****** ****** ****** ****** ****** ****** ******
      ****** ****** ****** ****** ****** ****** ****** ****** ****** ******
      ****** ****** ****** ******
  22  ****** ****** ****** ****** ****** ****** ****** ****** ****** ******
      ****** ****** ****** ****** ****** ****** ****** ****** ****** ******
      ****** ****** ****** ****** ****** ****** ****** ****** ****** ******
      ****** ****** ****** ****** ****** ****** ****** ****** ****** ******
      ****** ****** ****** ****** ****** ****** ****** ****** ****** ******
      ****** ****** ****** ****** ****** ****** ****** ****** ****** ******
      ****** ****** ****** ****** ****** ****** ****** ****** ****** ******
      ****** ****** ****** ****** ****** ****** ****** ****** ****** ******
      ****** ****** ****** ****** ****** ****** ****** ****** ****** ******
      ****** ****** ****** ****** ****** ****** ****** ****** ****** ******
      ****** ****** ****** ******
  23  ****** ****** ****** ****** ****** ****** ****** ****** ****** ******
      ****** ****** ****** ****** ****** ****** ****** ****** ****** ******
      ****** ****** ****** ****** ****** ****** ****** ****** ****** ******
      ****** ****** ****** ****** ****** ****** ****** ****** ****** ******
      ****** ****** ****** ****** ****** ****** ****** ****** ****** ******
      ****** ****** ****** ****** ****** ****** ****** ****** ****** ******
      ****** ****** ****** ****** ****** ****** ****** ****** ****** ******
      ****** ****** ****** ****** ****** ****** ****** ****** ****** ******
      ****** ****** ****** ****** ****** ****** ****** ****** ****** ******
      ****** ****** ****** ****** ****** ****** ****** ****** ****** ******
      ****** ****** ****** ******
  24  ****** ****** ****** ****** ****** ****** ****** ****** ****** ******
      ****** ****** ****** ****** ****** ****** ****** ****** ****** ******
      ****** ****** ****** ****** ****** ****** ****** ****** ****** ******
      ****** ****** ****** ****** ****** ****** ****** ****** ****** ******
      ****** ****** ****** ****** ****** ****** ****** ****** ****** ******
      ****** ****** ****** ****** ****** ****** ****** ****** ****** ******
      ****** ****** ****** ****** ****** ****** ****** ****** ****** ******
      ****** ****** ****** ****** ****** ****** ****** ****** ****** ******
      ****** ****** ****** ****** ****** ****** ****** ****** ****** ******
      ****** ****** ****** ****** ****** ****** ****** ****** ****** ******
      ****** ****** ****** ******
  25  ****** ****** ****** ****** ****** ****** ****** ****** ****** ******
      ****** ****** ****** ****** ****** ****** ****** ****** ****** ******
      ****** ****** ****** ****** ****** ****** ****** ****** ****** ******
      ****** ****** ****** ****** ****** ****** ****** ****** ****** ******
      ****** ****** ****** ****** ****** ****** ****** ****** ****** ******
      ****** ****** ****** ****** ****** ****** ****** ****** ****** ******
      ****** ****** ****** ****** ****** ****** ****** ****** ****** ******
      ****** ****** ****** ****** ****** ****** ****** ****** ****** ******
      ****** ****** ****** ****** ****** ****** ****** ****** ****** ******
      ****** ****** ****** ****** ****** ****** ****** ****** ****** ******
      ****** ****** ****** ******
  26  ****** ****** ****** ****** ****** ****** ****** ****** ****** ******
      ****** ****** ****** ****** ****** ****** ****** ****** ****** ******
      ****** ****** ****** ****** ****** ****** ****** ****** ****** ******
      ****** ****** ****** ****** ****** ****** ****** ****** ****** ******
      ****** ****** ****** ****** ****** ****** ****** ****** ****** ******
      ****** ****** ****** ****** ****** ****** ****** ****** ****** ******
      ****** ****** ****** ****** ****** ****** ****** ****** ****** ******
      ****** ****** ****** ****** ****** ****** ****** ****** ****** ******
      ****** ****** ****** ****** ****** ****** ****** ****** ****** ******
      ****** ****** ****** ****** ****** ****** ****** ****** ****** ******
      ****** ****** ****** ******
  27  ****** ****** ****** ****** ****** ****** ****** ****** ****** ******
      ****** ****** ****** ****** ****** ****** ****** ****** ****** ******
      ****** ****** ****** ****** ****** ****** ****** ****** ****** ******
      ****** ****** ****** ****** ****** ****** ****** ****** ****** ******
      ****** ****** ****** ****** ****** ****** ****** ****** ****** ******
      ****** ****** ****** ****** ****** ****** ****** ****** ****** ******
      ****** ****** ****** ****** ****** ****** ****** ****** ****** ******
      ****** ****** ****** ****** ****** ****** ****** ****** ****** ******
      ****** ****** ****** ****** ****** ****** ****** ****** ****** ******
      ****** ****** ****** ****** ****** ****** ****** ****** ****** ******
      ****** ****** ****** ******
  28  ****** ****** ****** ****** ****** ****** ****** ****** ****** ******
      ****** ****** ****** ****** ****** ****** ****** ****** ****** ******
      ****** ****** ****** ****** ****** ****** ****** ****** ****** ******
      ****** ****** ****** ****** ****** ****** ****** ****** ****** ******
      ****** ****** ****** ****** ****** ****** ****** ****** ****** ******
      ****** ****** ****** ****** ****** ****** ****** ****** ****** ******
      ****** ****** ****** ****** ****** ****** ****** ****** ****** ******
      ****** ****** ****** ****** ****** ****** ****** ****** ****** ******
      ****** ****** ****** ****** ****** ****** ****** ****** ****** ******
      ****** ****** ****** ****** ****** ****** ****** ****** ****** ******
      ****** ****** ****** ******
  29  ****** ****** ****** ****** ****** ****** ****** ****** ****** ******
      ****** ****** ****** ****** ****** ****** ****** ****** ****** ******
      ****** ****** ****** ****** ****** ****** ****** ****** ****** ******
      ****** ****** ****** ****** ****** ****** ****** ****** ****** ******
      ****** ****** ****** ****** ****** ****** ****** ****** ****** ******
      ****** ****** ****** ****** ****** ****** ****** ****** ****** ******
      ****** ****** ****** ****** ****** ****** ****** ****** ****** ******
      ****** ****** ****** ****** ****** ****** ****** ****** ****** ******
      ****** ****** ****** ****** ****** ****** ****** ****** ****** ******
      ****** ****** ****** ****** ****** ****** ****** ****** ****** ******
      ****** ****** ****** ******
  30  ****** ****** ****** ****** ****** ****** ****** ****** ****** ******
      ****** ****** ****** ****** ****** ****** ****** ****** ****** ******
      ****** ****** ****** ****** ****** ****** ****** ****** ****** ******
      ****** ****** ****** ****** ****** ****** ****** ****** ****** ******
      ****** ****** ****** ****** ****** ****** ****** ****** ****** ******
      ****** ****** ****** ****** ****** ****** ****** ****** ****** ******
      ****** ****** ****** ****** ****** ****** ****** ****** ****** ******
      ****** ****** ****** ****** ****** ****** ****** ****** ****** ******
      ****** ****** ****** ****** ****** ****** ****** ****** ****** ******
      ****** ****** ****** ****** ****** ****** ****** ****** ****** ******
      ****** ****** ****** ******
  31  ****** ****** ****** ****** ****** ****** ****** ****** ****** ******
      ****** ****** ****** ****** ****** ****** ****** ****** ****** ******
      ****** ****** ****** ****** ****** ****** ****** ****** ****** ******
      ****** ****** ****** ****** ****** ****** ****** ****** ****** ******
      ****** ****** ****** ****** ****** ****** ****** ****** ****** ******
      ****** ****** ****** ****** ****** ****** ****** ****** ****** ******
      ****** ****** ****** ****** ****** ****** ****** ****** ****** ******
      ****** ****** ****** ****** ****** ****** ****** ****** ****** ******
      ****** ****** ****** ****** ****** ****** ****** ****** ****** ******
      ****** ****** ****** ****** ****** ****** ****** ****** ****** ******
      ****** ****** ****** ******
  32  ****** ****** ****** ****** ****** ****** ****** ****** ****** ******
      ****** ****** ****** ****** ****** ****** ****** ****** ****** ******
      ****** ****** ****** ****** ****** ****** ****** ****** ****** ******
      ****** ****** ****** ****** ****** ****** ****** ****** ****** ******
      ****** ****** ****** ****** ****** ****** ****** ****** ****** ******
      ****** ****** ****** ****** ****** ****** ****** ****** ****** ******
      ****** ****** ****** ****** ****** ****** ****** ****** ****** ******
      ****** ****** ****** ****** ****** ****** ****** ****** ****** ******
      ****** ****** ****** ****** ****** ****** ****** ****** ****** ******
      ****** ****** ****** ****** ****** ****** ****** ****** ****** ******
      ****** ****** ****** ******
  33  ****** ****** ****** ****** ****** ****** ****** ****** ****** ******
      ****** ****** ****** ****** ****** ****** ****** ****** ****** ******
      ****** ****** ****** ****** ****** ****** ****** ****** ****** ******
      ****** ****** ****** ****** ****** ****** ****** ****** ****** ******
      ****** ****** ****** ****** ****** ****** ****** ****** ****** ******
      ****** ****** ****** ****** ****** ****** ****** ****** ****** ******
      ****** ****** ****** ****** ****** ****** ****** ****** ****** ******
      ****** ****** ****** ****** ****** ****** ****** ****** ****** ******
      ****** ****** ****** ****** ****** ****** ****** ****** ****** ******
      ****** ****** ****** ****** ****** ****** ****** ****** ****** ******
      ****** ****** ****** ******
  34  ****** ****** ****** ****** ****** ****** ****** ****** ****** ******
      ****** ****** ****** ****** ****** ****** ****** ****** ****** ******
      ****** ****** ****** ****** ****** ****** ****** ****** ****** ******
      ****** ****** ****** ****** ****** ****** ****** ****** ****** ******
      ****** ****** ****** ****** ****** ****** ****** ****** ****** ******
      ****** ****** ****** ****** ****** ****** ****** ****** ****** ******
      ****** ****** ****** ****** ****** ****** ****** ****** ****** ******
      ****** ****** ****** ****** ****** ****** ****** ****** ****** ******
      ****** ****** ****** ****** ****** ****** ****** ****** ****** ******
      ****** ****** ****** ****** ****** ****** ****** ****** ****** ******
      ****** ****** ****** ******
  35  ****** ****** ****** ****** ****** ****** ****** ****** ****** ******
      ****** ****** ****** ****** ****** ****** ****** ****** ****** ******
      ****** ****** ****** ****** ****** ****** ****** ****** ****** ******
      ****** ****** ****** ****** ****** ****** ****** ****** ****** ******
      ****** ****** ****** ****** ****** ****** ****** ****** ****** ******
      ****** ****** ****** ****** ****** ****** ****** ****** ****** ******
      ****** ****** ****** ****** ****** ****** ****** ****** ****** ******
      ****** ****** ****** ****** ****** ****** ****** ****** ****** ******
      ****** ****** ****** ****** ****** ****** ****** ****** ****** ******
      ****** ****** ****** ****** ****** ****** ****** ****** ****** ******
      ****** ****** ****** ******
  36  ****** ****** ****** ****** ****** ****** ****** ****** ****** ******
      ****** ****** ****** ****** ****** ****** ****** ****** ****** ******
      ****** ****** ****** ****** ****** ****** ****** ****** ****** ******
      ****** ****** ****** ****** ****** ****** ****** ****** ****** ******
      ****** ****** ****** ****** ****** ****** ****** ****** ****** ******
      ****** ****** ****** ****** ****** ****** ****** ****** ****** ******
      ****** ****** ****** ****** ****** ****** ****** ****** ****** ******
      ****** ****** ****** ****** ****** ****** ****** ****** ****** ******
      ****** ****** ****** ****** ****** ****** ****** ****** ****** ******
      ****** ****** ****** ****** ****** ****** ****** ****** ****** ******
      ****** ****** ****** ******
  37  ****** ****** ****** ****** ****** ****** ****** ****** ****** ******
      ****** ****** ****** ****** ****** ****** ****** ****** ****** ******
      ****** ****** ****** ****** ****** ****** ****** ****** ****** ******
      ****** ****** ****** ****** ****** ****** ****** ****** ****** ******
      ****** ****** ****** ****** ****** ****** ****** ****** ****** ******
      ****** ****** ****** ****** ****** ****** ****** ****** ****** ******
      ****** ****** ****** ****** ****** ****** ****** ****** ****** ******
      ****** ****** ****** ****** ****** ****** ****** ****** ****** ******
      ****** ****** ****** ****** ****** ****** ****** ****** ****** ******
      ****** ****** ****** ****** ****** ****** ****** ****** ****** ******
      ****** ****** ****** ******
  38  ****** ****** ****** ****** ****** ****** ****** ****** ****** ******
      ****** ****** ****** ****** ****** ****** ****** ****** ****** ******
      ****** ****** ****** ****** ****** ****** ****** ****** ****** ******
      ****** ****** ****** ****** ****** ****** ****** ****** ****** ******
      ****** ****** ****** ****** ****** ****** ****** ****** ****** ******
      ****** ****** ****** ****** ****** ****** ****** ****** ****** ******
      ****** ****** ****** ****** ****** ****** ****** ****** ****** ******
      ****** ****** ****** ****** ****** ****** ****** ****** ****** ******
      ****** ****** ****** ****** ****** ****** ****** ****** ****** ******
      ****** ****** ****** ****** ****** ****** ****** ****** ****** ******
      ****** ****** ****** ******
  39  ****** ****** ****** ****** ****** ****** ****** ****** ****** ******
      ****** ****** ****** ****** ****** ****** ****** ****** ****** ******
      ****** ****** ****** ****** ****** ****** ****** ****** ****** ******
      ****** ****** ****** ****** ****** ****** ****** ****** ****** ******
      ****** ****** ****** ****** ****** ****** ****** ****** ****** ******
      ****** ****** ****** ****** ****** ****** ****** ****** ****** ******
      ****** ****** ****** ****** ****** ****** ****** ****** ****** ******
      ****** ****** ****** ****** ****** ****** ****** ****** ****** ******
      ****** ****** ****** ****** ****** ****** ****** ****** ****** ******
      ****** ****** ****** ****** ****** ****** ****** ****** ****** ******
      ****** ****** ****** ******
  40  ****** ****** ****** ****** ****** ****** ****** ****** ****** ******
      ****** ****** ****** ****** ****** ****** ****** ****** ****** ******
      ****** ****** ****** ****** ****** ****** ****** ****** ****** ******
      ****** ****** ****** ****** ****** ****** ****** ****** ****** ******
      ****** ****** ****** ****** ****** ****** ****** ****** ****** ******
      ****** ****** ****** ****** ****** ****** ****** ****** ****** ******
      ****** ****** ****** ****** ****** ****** ****** ****** ****** ******
      ****** ****** ****** ****** ****** ****** ****** ****** ****** ******
[...]
    ------------------------------------------------

 NO OUTPUT CONTROL FOR STRESS PERIOD  119   TIME STEP   19

 SOLVING FOR HEAD 

    ------------------------------------------------
       NWT REQUIRED            1 OUTER ITERATIONS 
       AND A TOTAL OF          1 INNER ITERATIONS.
    ------------------------------------------------

 NO OUTPUT CONTROL FOR STRESS PERIOD  119   TIME STEP   20

 SOLVING FOR HEAD 

    ------------------------------------------------
       NWT REQUIRED            1 OUTER ITERATIONS 
       AND A TOTAL OF          1 INNER ITERATIONS.
    ------------------------------------------------

 NO OUTPUT CONTROL FOR STRESS PERIOD  119   TIME STEP   21

 SOLVING FOR HEAD 

    ------------------------------------------------
       NWT REQUIRED            1 OUTER ITERATIONS 
       AND A TOTAL OF          1 INNER ITERATIONS.
    ------------------------------------------------

 NO OUTPUT CONTROL FOR STRESS PERIOD  119   TIME STEP   22

 SOLVING FOR HEAD 

    ------------------------------------------------
       NWT REQUIRED            1 OUTER ITERATIONS 
       AND A TOTAL OF          1 INNER ITERATIONS.
    ------------------------------------------------

 NO OUTPUT CONTROL FOR STRESS PERIOD  119   TIME STEP   23

 SOLVING FOR HEAD 

    ------------------------------------------------
       NWT REQUIRED            1 OUTER ITERATIONS 
       AND A TOTAL OF          1 INNER ITERATIONS.
    ------------------------------------------------

 NO OUTPUT CONTROL FOR STRESS PERIOD  119   TIME STEP   24

 SOLVING FOR HEAD 

    ------------------------------------------------
       NWT REQUIRED            1 OUTER ITERATIONS 
       AND A TOTAL OF          1 INNER ITERATIONS.
    ------------------------------------------------

 NO OUTPUT CONTROL FOR STRESS PERIOD  119   TIME STEP   25

 SOLVING FOR HEAD 

    ------------------------------------------------
       NWT REQUIRED            1 OUTER ITERATIONS 
       AND A TOTAL OF          1 INNER ITERATIONS.
    ------------------------------------------------

 NO OUTPUT CONTROL FOR STRESS PERIOD  119   TIME STEP   26

 SOLVING FOR HEAD 

    ------------------------------------------------
       NWT REQUIRED            1 OUTER ITERATIONS 
       AND A TOTAL OF          1 INNER ITERATIONS.
    ------------------------------------------------

 NO OUTPUT CONTROL FOR STRESS PERIOD  119   TIME STEP   27

 SOLVING FOR HEAD 

    ------------------------------------------------
       NWT REQUIRED            1 OUTER ITERATIONS 
       AND A TOTAL OF          1 INNER ITERATIONS.
    ------------------------------------------------

 NO OUTPUT CONTROL FOR STRESS PERIOD  119   TIME STEP   28

 SOLVING FOR HEAD 

    ------------------------------------------------
       NWT REQUIRED            1 OUTER ITERATIONS 
       AND A TOTAL OF          1 INNER ITERATIONS.
    ------------------------------------------------

 NO OUTPUT CONTROL FOR STRESS PERIOD  119   TIME STEP   29

 SOLVING FOR HEAD 

    ------------------------------------------------
       NWT REQUIRED            1 OUTER ITERATIONS 
       AND A TOTAL OF          1 INNER ITERATIONS.
    ------------------------------------------------

 NO OUTPUT CONTROL FOR STRESS PERIOD  119   TIME STEP   30


UNSATURATED ZONE PACKAGE VOLUMETRIC BUDGET FOR  TIME STEP    30 STRESS PERIOD  119
  ------------------------------------------------------------------------------



     CUMULATIVE VOLUMES      L**3       RATES FOR THIS TIME STEP      L**3/T
     ------------------                 ------------------------

           IN:                                      IN:
           ---                                      ---
        INFILTRATION = 53824799710.7271          INFILTRATION =    15200450.1824

          OUT:                                     OUT:
          ----                                     ----
              UZF ET =       0.0000E+00                UZF ET =       0.0000E+00
        UZF RECHARGE = 53824799710.7271          UZF RECHARGE =    15200450.1824

            IN - OUT =       0.0000E+00              IN - OUT =       0.0000E+00

          STORAGE:                                 STORAGE:
          --------                                 --------
      STORAGE CHANGE =       0.0000E+00        STORAGE CHANGE =       0.0000E+00

 PERCENT DISCREPANCY IS DIFFERENCE BETWEEN IN-OUT MINUS CHANGE IN STORAGE
 DIVIDED BY THE AVERAGE OF IN AND OUT TIMES 100

 PERCENT DISCREPANCY =           0.00     PERCENT DISCREPANCY =           0.00






1
  VOLUMETRIC BUDGET FOR ENTIRE MODEL AT END OF TIME STEP   30, STRESS PERIOD 119
  ------------------------------------------------------------------------------

     CUMULATIVE VOLUMES      L**3       RATES FOR THIS TIME STEP      L**3/T
     ------------------                 ------------------------

           IN:                                      IN:
           ---                                      ---
             STORAGE     =        1808.6591               STORAGE     =           0.5109
       CONSTANT HEAD     =           0.0000         CONSTANT HEAD     =           0.0000
      STREAM LEAKAGE     =  1740505344.0000        STREAM LEAKAGE     =      491545.6250
        UZF RECHARGE     = 53824180224.0000          UZF RECHARGE     =    15200462.0000
               GW ET     =           0.0000                 GW ET     =           0.0000
     SURFACE LEAKAGE     =           0.0000       SURFACE LEAKAGE     =           0.0000

                TOTAL IN = 55564689408.0000                  TOTAL IN =    15692008.0000

          OUT:                                     OUT:
          ----                                     ----
             STORAGE     =        8089.8823               STORAGE     =           0.4952
       CONSTANT HEAD     =           0.0000         CONSTANT HEAD     =           0.0000
      STREAM LEAKAGE     =           0.0000        STREAM LEAKAGE     =           0.0000
        UZF RECHARGE     =           0.0000          UZF RECHARGE     =           0.0000
               GW ET     =           0.0000                 GW ET     =           0.0000
     SURFACE LEAKAGE     = 55564648448.0000       SURFACE LEAKAGE     =    15692006.0000

               TOTAL OUT = 55564656640.0000                 TOTAL OUT =    15692006.0000

                IN - OUT =       32768.0000                  IN - OUT =           2.0000

     PERCENT DISCREPANCY =           0.00         PERCENT DISCREPANCY =           0.00






         TIME SUMMARY AT END OF TIME STEP   30 IN STRESS PERIOD  119
                    SECONDS     MINUTES      HOURS       DAYS        YEARS
                    -----------------------------------------------------------
   TIME STEP LENGTH  86400.      1440.0      24.000      1.0000     2.73785E-03
 STRESS PERIOD TIME 2.59200E+06  43200.      720.00      30.000     8.21355E-02
         TOTAL TIME 3.05942E+08 5.09904E+06  84984.      3541.0      9.6947    
1
1
                            STRESS PERIOD NO.  120, LENGTH =   30.00000    
                            -----------------------------------------------

                              NUMBER OF TIME STEPS =    30

                               MULTIPLIER FOR DELT =     1.000

                            INITIAL TIME STEP SIZE =   1.000000    

 REUSING STREAM SEGMENT DATA FROM LAST STRESS PERIOD
 USING INFILTRATION RATE FROM PREVIOUS STRESS 
 PERIOD.CURRENT PERIOD IS:          120

 SOLVING FOR HEAD 

    ------------------------------------------------
       NWT REQUIRED            1 OUTER ITERATIONS 
       AND A TOTAL OF          1 INNER ITERATIONS.
    ------------------------------------------------

 NO OUTPUT CONTROL FOR STRESS PERIOD  120   TIME STEP    1

 SOLVING FOR HEAD 

    ------------------------------------------------
       NWT REQUIRED            1 OUTER ITERATIONS 
       AND A TOTAL OF          1 INNER ITERATIONS.
    ------------------------------------------------

 NO OUTPUT CONTROL FOR STRESS PERIOD  120   TIME STEP    2

 SOLVING FOR HEAD 

    ------------------------------------------------
       NWT REQUIRED            1 OUTER ITERATIONS 
       AND A TOTAL OF          1 INNER ITERATIONS.
    ------------------------------------------------

 NO OUTPUT CONTROL FOR STRESS PERIOD  120   TIME STEP    3

 SOLVING FOR HEAD 

    ------------------------------------------------
       NWT REQUIRED            1 OUTER ITERATIONS 
       AND A TOTAL OF          1 INNER ITERATIONS.
    ------------------------------------------------

 NO OUTPUT CONTROL FOR STRESS PERIOD  120   TIME STEP    4

 SOLVING FOR HEAD 

    ------------------------------------------------
       NWT REQUIRED            1 OUTER ITERATIONS 
       AND A TOTAL OF          1 INNER ITERATIONS.
    ------------------------------------------------

 NO OUTPUT CONTROL FOR STRESS PERIOD  120   TIME STEP    5

 SOLVING FOR HEAD 

    ------------------------------------------------
       NWT REQUIRED            1 OUTER ITERATIONS 
       AND A TOTAL OF          1 INNER ITERATIONS.
    ------------------------------------------------

 NO OUTPUT CONTROL FOR STRESS PERIOD  120   TIME STEP    6

 SOLVING FOR HEAD 

    ------------------------------------------------
       NWT REQUIRED            1 OUTER ITERATIONS 
       AND A TOTAL OF          1 INNER ITERATIONS.
    ------------------------------------------------

 NO OUTPUT CONTROL FOR STRESS PERIOD  120   TIME STEP    7

 SOLVING FOR HEAD 

    ------------------------------------------------
       NWT REQUIRED            1 OUTER ITERATIONS 
       AND A TOTAL OF          1 INNER ITERATIONS.
    ------------------------------------------------

 NO OUTPUT CONTROL FOR STRESS PERIOD  120   TIME STEP    8

 SOLVING FOR HEAD 

    ------------------------------------------------
       NWT REQUIRED            1 OUTER ITERATIONS 
       AND A TOTAL OF          1 INNER ITERATIONS.
    ------------------------------------------------

 NO OUTPUT CONTROL FOR STRESS PERIOD  120   TIME STEP    9

 SOLVING FOR HEAD 

    ------------------------------------------------
       NWT REQUIRED            1 OUTER ITERATIONS 
       AND A TOTAL OF          1 INNER ITERATIONS.
    ------------------------------------------------

 NO OUTPUT CONTROL FOR STRESS PERIOD  120   TIME STEP   10

 SOLVING FOR HEAD 

    ------------------------------------------------
       NWT REQUIRED            1 OUTER ITERATIONS 
       AND A TOTAL OF          1 INNER ITERATIONS.
    ------------------------------------------------

 NO OUTPUT CONTROL FOR STRESS PERIOD  120   TIME STEP   11

 SOLVING FOR HEAD 

    ------------------------------------------------
       NWT REQUIRED            1 OUTER ITERATIONS 
       AND A TOTAL OF          1 INNER ITERATIONS.
    ------------------------------------------------

 NO OUTPUT CONTROL FOR STRESS PERIOD  120   TIME STEP   12

 SOLVING FOR HEAD 

    ------------------------------------------------
       NWT REQUIRED            1 OUTER ITERATIONS 
       AND A TOTAL OF          1 INNER ITERATIONS.
    ------------------------------------------------

 NO OUTPUT CONTROL FOR STRESS PERIOD  120   TIME STEP   13

 SOLVING FOR HEAD 

    ------------------------------------------------
       NWT REQUIRED            1 OUTER ITERATIONS 
       AND A TOTAL OF          1 INNER ITERATIONS.
    ------------------------------------------------

 NO OUTPUT CONTROL FOR STRESS PERIOD  120   TIME STEP   14

 SOLVING FOR HEAD 

    ------------------------------------------------
       NWT REQUIRED            1 OUTER ITERATIONS 
       AND A TOTAL OF          1 INNER ITERATIONS.
    ------------------------------------------------

 NO OUTPUT CONTROL FOR STRESS PERIOD  120   TIME STEP   15

 SOLVING FOR HEAD 

    ------------------------------------------------
       NWT REQUIRED            1 OUTER ITERATIONS 
       AND A TOTAL OF          1 INNER ITERATIONS.
    ------------------------------------------------

 NO OUTPUT CONTROL FOR STRESS PERIOD  120   TIME STEP   16

 SOLVING FOR HEAD 

    ------------------------------------------------
       NWT REQUIRED            1 OUTER ITERATIONS 
       AND A TOTAL OF          1 INNER ITERATIONS.
    ------------------------------------------------

 NO OUTPUT CONTROL FOR STRESS PERIOD  120   TIME STEP   17

 SOLVING FOR HEAD 

    ------------------------------------------------
       NWT REQUIRED            1 OUTER ITERATIONS 
       AND A TOTAL OF          1 INNER ITERATIONS.
    ------------------------------------------------

 NO OUTPUT CONTROL FOR STRESS PERIOD  120   TIME STEP   18

 SOLVING FOR HEAD 

    ------------------------------------------------
       NWT REQUIRED            1 OUTER ITERATIONS 
       AND A TOTAL OF          1 INNER ITERATIONS.
    ------------------------------------------------

 NO OUTPUT CONTROL FOR STRESS PERIOD  120   TIME STEP   19

 SOLVING FOR HEAD 

    ------------------------------------------------
       NWT REQUIRED            1 OUTER ITERATIONS 
       AND A TOTAL OF          1 INNER ITERATIONS.
    ------------------------------------------------

 NO OUTPUT CONTROL FOR STRESS PERIOD  120   TIME STEP   20

 SOLVING FOR HEAD 

    ------------------------------------------------
       NWT REQUIRED            1 OUTER ITERATIONS 
       AND A TOTAL OF          1 INNER ITERATIONS.
    ------------------------------------------------

 NO OUTPUT CONTROL FOR STRESS PERIOD  120   TIME STEP   21

 SOLVING FOR HEAD 

    ------------------------------------------------
       NWT REQUIRED            1 OUTER ITERATIONS 
       AND A TOTAL OF          1 INNER ITERATIONS.
    ------------------------------------------------

 NO OUTPUT CONTROL FOR STRESS PERIOD  120   TIME STEP   22

 SOLVING FOR HEAD 

    ------------------------------------------------
       NWT REQUIRED            1 OUTER ITERATIONS 
       AND A TOTAL OF          1 INNER ITERATIONS.
    ------------------------------------------------

 NO OUTPUT CONTROL FOR STRESS PERIOD  120   TIME STEP   23

 SOLVING FOR HEAD 

    ------------------------------------------------
       NWT REQUIRED            1 OUTER ITERATIONS 
       AND A TOTAL OF          1 INNER ITERATIONS.
    ------------------------------------------------

 NO OUTPUT CONTROL FOR STRESS PERIOD  120   TIME STEP   24

 SOLVING FOR HEAD 

    ------------------------------------------------
       NWT REQUIRED            1 OUTER ITERATIONS 
       AND A TOTAL OF          1 INNER ITERATIONS.
    ------------------------------------------------

 NO OUTPUT CONTROL FOR STRESS PERIOD  120   TIME STEP   25

 SOLVING FOR HEAD 

    ------------------------------------------------
       NWT REQUIRED            1 OUTER ITERATIONS 
       AND A TOTAL OF          1 INNER ITERATIONS.
    ------------------------------------------------

 NO OUTPUT CONTROL FOR STRESS PERIOD  120   TIME STEP   26

 SOLVING FOR HEAD 

    ------------------------------------------------
       NWT REQUIRED            1 OUTER ITERATIONS 
       AND A TOTAL OF          1 INNER ITERATIONS.
    ------------------------------------------------

 NO OUTPUT CONTROL FOR STRESS PERIOD  120   TIME STEP   27

 SOLVING FOR HEAD 

    ------------------------------------------------
       NWT REQUIRED            1 OUTER ITERATIONS 
       AND A TOTAL OF          1 INNER ITERATIONS.
    ------------------------------------------------

 NO OUTPUT CONTROL FOR STRESS PERIOD  120   TIME STEP   28

 SOLVING FOR HEAD 

    ------------------------------------------------
       NWT REQUIRED            1 OUTER ITERATIONS 
       AND A TOTAL OF          1 INNER ITERATIONS.
    ------------------------------------------------

 NO OUTPUT CONTROL FOR STRESS PERIOD  120   TIME STEP   29

 SOLVING FOR HEAD 

    ------------------------------------------------
       NWT REQUIRED            1 OUTER ITERATIONS 
       AND A TOTAL OF          1 INNER ITERATIONS.
    ------------------------------------------------

 NO OUTPUT CONTROL FOR STRESS PERIOD  120   TIME STEP   30


UNSATURATED ZONE PACKAGE VOLUMETRIC BUDGET FOR  TIME STEP    30 STRESS PERIOD  120
  ------------------------------------------------------------------------------



     CUMULATIVE VOLUMES      L**3       RATES FOR THIS TIME STEP      L**3/T
     ------------------                 ------------------------

           IN:                                      IN:
           ---                                      ---
        INFILTRATION = 54280813216.2038          INFILTRATION =    15200450.1824

          OUT:                                     OUT:
          ----                                     ----
              UZF ET =       0.0000E+00                UZF ET =       0.0000E+00
        UZF RECHARGE = 54280813216.2038          UZF RECHARGE =    15200450.1824

            IN - OUT =       0.0000E+00              IN - OUT =       0.0000E+00

          STORAGE:                                 STORAGE:
          --------                                 --------
      STORAGE CHANGE =       0.0000E+00        STORAGE CHANGE =       0.0000E+00

 PERCENT DISCREPANCY IS DIFFERENCE BETWEEN IN-OUT MINUS CHANGE IN STORAGE
 DIVIDED BY THE AVERAGE OF IN AND OUT TIMES 100

 PERCENT DISCREPANCY =           0.00     PERCENT DISCREPANCY =           0.00






1
  VOLUMETRIC BUDGET FOR ENTIRE MODEL AT END OF TIME STEP   30, STRESS PERIOD 120
  ------------------------------------------------------------------------------

     CUMULATIVE VOLUMES      L**3       RATES FOR THIS TIME STEP      L**3/T
     ------------------                 ------------------------

           IN:                                      IN:
           ---                                      ---
             STORAGE     =        1823.9886               STORAGE     =           0.5109
       CONSTANT HEAD     =           0.0000         CONSTANT HEAD     =           0.0000
      STREAM LEAKAGE     =  1755250944.0000        STREAM LEAKAGE     =      491545.6250
        UZF RECHARGE     = 54280187904.0000          UZF RECHARGE     =    15200462.0000
               GW ET     =           0.0000                 GW ET     =           0.0000
     SURFACE LEAKAGE     =           0.0000       SURFACE LEAKAGE     =           0.0000

                TOTAL IN = 56035442688.0000                  TOTAL IN =    15692008.0000

          OUT:                                     OUT:
          ----                                     ----
             STORAGE     =        8104.7358               STORAGE     =           0.4952
       CONSTANT HEAD     =           0.0000         CONSTANT HEAD     =           0.0000
      STREAM LEAKAGE     =           0.0000        STREAM LEAKAGE     =           0.0000
        UZF RECHARGE     =           0.0000          UZF RECHARGE     =           0.0000
               GW ET     =           0.0000                 GW ET     =           0.0000
     SURFACE LEAKAGE     = 56035401728.0000       SURFACE LEAKAGE     =    15692006.0000

               TOTAL OUT = 56035409920.0000                 TOTAL OUT =    15692006.0000

                IN - OUT =       32768.0000                  IN - OUT =           2.0000

     PERCENT DISCREPANCY =           0.00         PERCENT DISCREPANCY =           0.00






         TIME SUMMARY AT END OF TIME STEP   30 IN STRESS PERIOD  120
                    SECONDS     MINUTES      HOURS       DAYS        YEARS
                    -----------------------------------------------------------
   TIME STEP LENGTH  86400.      1440.0      24.000      1.0000     2.73785E-03
 STRESS PERIOD TIME 2.59200E+06  43200.      720.00      30.000     8.21355E-02
         TOTAL TIME 3.08534E+08 5.14224E+06  85704.      3571.0      9.7769    
1

 Run end date and time (yyyy/mm/dd hh:mm:ss): 2023/11/07 14:23:24
 Elapsed run time: 20.733 Seconds

