                                  MODFLOW-NWT-SWR1 
      U.S. GEOLOGICAL SURVEY MODULAR FINITE-DIFFERENCE GROUNDWATER-FLOW MODEL
                            VERSION 1.2.0 03/01/2020
                    BASED ON MODFLOW-2005 VERSION 1.12.00 02/03/2017

 LIST FILE: sagehen_50m.list
                         UNIT    2

 OPENING sagehen_50m.dis
 FILE TYPE:DIS   UNIT   11   STATUS:OLD    
 FORMAT:FORMATTED              ACCESS:SEQUENTIAL          

 OPENING sagehen_50m.bas
 FILE TYPE:BAS6   UNIT   13   STATUS:OLD    
 FORMAT:FORMATTED              ACCESS:SEQUENTIAL          

 OPENING sagehen_50m.upw
 FILE TYPE:UPW   UNIT   31   STATUS:OLD    
 FORMAT:FORMATTED              ACCESS:SEQUENTIAL          

 OPENING sagehen_50m.nwt
 FILE TYPE:NWT   UNIT   32   STATUS:OLD    
 FORMAT:FORMATTED              ACCESS:SEQUENTIAL          

 OPENING sagehen_50m.oc
 FILE TYPE:OC   UNIT   14   STATUS:OLD    
 FORMAT:FORMATTED              ACCESS:SEQUENTIAL          

 OPENING sagehen_50m.uzf
 FILE TYPE:UZF   UNIT   19   STATUS:OLD    
 FORMAT:FORMATTED              ACCESS:SEQUENTIAL          

 OPENING sagehen_50m.sfr
 FILE TYPE:SFR   UNIT   17   STATUS:OLD    
 FORMAT:FORMATTED              ACCESS:SEQUENTIAL          

 OPENING sagehen_50m.hds
 FILE TYPE:DATA(BINARY)   UNIT   51   STATUS:REPLACE
 FORMAT:UNFORMATTED            ACCESS:STREAM              

 BAS -- BASIC PACKAGE, VERSION 1.1.4, 4/01/2018 INPUT READ FROM UNIT   13

 MODFLOW was compiled using mixed precision
 Precision of REAL variables:           6
 Precision of DOUBLE PRECISION variables:          15

 DISCRETIZATION INPUT DATA READ FROM UNIT   11
 # DIS package for MODFLOW-NWT generated by Flopy 3.4.3
    1 LAYERS       138 ROWS       149 COLUMNS
    2 STRESS PERIOD(S) IN SIMULATION
 MODEL TIME UNIT IS DAYS
 MODEL LENGTH UNIT IS METERS
  Confining bed flag for each layer:
   0



                               DELR
 READING ON UNIT   11 WITH FORMAT: (FREE)              



                               DELC
 READING ON UNIT   11 WITH FORMAT: (FREE)              



           TOP ELEVATION OF LAYER 1
 READING ON UNIT   11 WITH FORMAT: (FREE)              



             MODEL LAYER BOTTOM EL. FOR LAYER   1
 READING ON UNIT   11 WITH FORMAT: (FREE)              


 STRESS PERIOD     LENGTH       TIME STEPS     MULTIPLIER FOR DELT    SS FLAG
 ----------------------------------------------------------------------------
        1         1.000000          1                    1.000         SS
        2         5356.000       5356                    1.000         TR

 COMBINED STEADY-STATE AND TRANSIENT SIMULATION




 # BAS6 package for MODFLOW-NWT generated by Flopy 3.4.3                         
 THE FREE FORMAT OPTION HAS BEEN SELECTED



                     BOUNDARY ARRAY FOR LAYER   1
 READING ON UNIT   13 WITH FORMAT: (FREE)              

 AQUIFER HEAD WILL BE SET TO  -9999.0     AT ALL NO-FLOW NODES (IBOUND=0).



                       INITIAL HEAD FOR LAYER   1
 READING ON UNIT   13 WITH FORMAT: (FREE)              
 # OC package for MODFLOW-NWT generated by Flopy 3.4.3

 OUTPUT CONTROL IS SPECIFIED ONLY AT TIME STEPS FOR WHICH OUTPUT IS DESIRED
 COMPACT CELL-BY-CELL BUDGET FILES WILL BE WRITTEN
 AUXILIARY DATA WILL BE SAVED IN CELL-BY-CELL BUDGET FILES
 HEAD PRINT FORMAT CODE IS  15    DRAWDOWN PRINT FORMAT CODE IS   0
 HEADS WILL BE SAVED ON UNIT   51    DRAWDOWNS WILL BE SAVED ON UNIT    0
 # NWT package for MODFLOW-NWT generated by Flopy 3.4.3

 NWT1 -- Newton Solver, VERSION 1.1.4, 4/01/2018
         INPUT READ FROM UNIT 32

 SIMPLE OPTION:
 DEFAULT SOLVER INPUT VALUES REFLECT NEARLY LINEAR MODEL
 ***GMRES linear solver will be used***

   CONVERGENCE CRITERION OF   0.100000E-03 FOR HEAD SOLUTION
   AND A TOLERANCE OF   0.500000E+03 FOR FLOW SOLUTION AND 
   A MAXIMUM OF   100 OUTER ITERATIONS. 


   D-B-D REDUCTION FACTOR OF    0.970000E+00 AND 
   A D-B-D INCREASE FACTOR OF    0.100000E-03 AND 
   A D-B-D RELAXATION OF    0.000000E+00 AND 
   A MOMENTUM FACTOR OF    0.000000E+00 .


 ***BACKTRACKING IS INACTIVE***
 GMRES -- LINEAR SOLUTION BY GMRES PACKAGE 
     adapted for HYDROTHERM by Kipp and others (2008)
     using software originally developed by Saad (1990) 32
     using algorithms described in Saad (2003)

 UPW1 -- UPSTREAM WEIGHTING FLOW PACKAGE, VERSION 1.1.4, 4/01/2018
         INPUT READ FROM UNIT 31

 # UPW package for MODFLOW-NWT generated by Flopy 3.4.3
 No named parameters

   LAYER FLAGS:
 LAYER       LAYTYP          LAYAVG    CHANI           LAYVKA           LAYWET
 ---------------------------------------------------------------------------
    1             1             0     1.000E+00             0             0

   INTERPRETATION OF LAYER FLAGS:
                        INTERBLOCK     HORIZONTAL    DATA IN
         LAYER TYPE   TRANSMISSIVITY   ANISOTROPY   ARRAY VKA   WETTABILITY
 LAYER   (LAYTYP)        (LAYAVG)      (CHANI)     (LAYVKA)       (LAYWET)
 ---------------------------------------------------------------------------
    1   CONVERTIBLE      HARMONIC     1.000E+00    VERTICAL K  NON-WETTABLE



              HYD. COND. ALONG ROWS FOR LAYER   1
 READING ON UNIT   31 WITH FORMAT: (FREE)              

      VERTICAL HYD. COND. =   1.00000     FOR LAYER   1



                   SPECIFIC STORAGE FOR LAYER   1
 READING ON UNIT   31 WITH FORMAT: (FREE)              

           SPECIFIC YIELD =  0.200000     FOR LAYER   1

 SFR7 -- STREAMFLOW ROUTING PACKAGE, VERSION 1.0.5, 2012-04-05
         INPUT READ FROM UNIT  17
 # SFR package for MODFLOW-NWT generated by Flopy 3.4.3
 No named parameters

 PROCESSING SFR2 OPTIONS

  Some stream information will be read by reach. This option replaces NSTRM<0

 END PROCESSING SFR2 OPTIONS



 NUMBER OF STREAM REACHES IS  350

 NUMBER OF STREAM SEGMENTS IS   17

 NUMBER OF STREAM PARAMETERS IS    0

 NUMBER OF STREAM SEGMENTS DEFINED USING PARAMETERS IS              0

 MAXIMUM ERROR FOR STREAM LEAKAGE RATES IS  1.00E-04

 CONSTANT FOR MANNINGS EQUATION IS  8.6400E+04





 USING DATA INPUT MODIFIED FROM ORIGINAL SFR PROGRAM FOR FARM PACKAGE



   STREAM NETWORK DESCRIPTION: 

   LAYER    ROW    COL   SEGMENT   REACH     LENGTH     STREAMBED     STREAMBED   STREAMBED     STREAMBED
                          NUMBER   NUMBER    IN CELL    TOP ELEV.       SLOPE     THICKNESS   HYDR. CONDUCT.        
   ---------------------------------------------------------------------------------------------------------
       1    110    132       1        1    8.4158E+02   2.0745E+03   5.8687E-03   1.0000E+00   1.0000E-01
       1    109    133       1        2    6.0355E+01   2.0696E+03   1.2365E-01   1.0000E+00   1.0000E-01
       1    108    133       1        3    5.0000E+01   2.0621E+03   1.2640E-01   1.0000E+00   1.0000E-01
       1    107    133       1        4    5.0000E+01   2.0558E+03   1.1921E-01   1.0000E+00   1.0000E-01
       1    106    133       1        5    5.0000E+01   2.0498E+03   1.2406E-01   1.0000E+00   1.0000E-01
       1    105    133       1        6    5.0000E+01   2.0436E+03   1.1100E-01   1.0000E+00   1.0000E-01
       1    104    133       1        7    5.0000E+01   2.0381E+03   1.5124E-01   1.0000E+00   1.0000E-01
       1    103    133       1        8    5.0000E+01   2.0305E+03   1.2596E-01   1.0000E+00   1.0000E-01
       1    102    133       1        9    6.0355E+01   2.0242E+03   1.5732E-01   1.0000E+00   1.0000E-01
       1    101    132       1       10    6.0355E+01   2.0147E+03   7.9645E-02   1.0000E+00   1.0000E-01
       1    100    132       1       11    5.0000E+01   2.0099E+03   7.7468E-02   1.0000E+00   1.0000E-01
       1     99    132       1       12    6.0355E+01   2.0061E+03   9.5057E-02   1.0000E+00   1.0000E-01
       1     98    131       1       13    6.0355E+01   2.0003E+03   5.2125E-02   1.0000E+00   1.0000E-01
       1     97    131       1       14    5.0000E+01   1.9972E+03   4.5723E-02   1.0000E+00   1.0000E-01
       1     96    131       1       15    5.0000E+01   1.9949E+03   6.7275E-02   1.0000E+00   1.0000E-01
       1     95    131       1       16    5.0000E+01   1.9915E+03   7.4924E-02   1.0000E+00   1.0000E-01
       1     94    131       1       17    5.0000E+01   1.9878E+03   8.3613E-02   1.0000E+00   1.0000E-01
       1     93    131       1       18    5.0000E+01   1.9836E+03   7.4221E-02   1.0000E+00   1.0000E-01
       1     92    131       1       19    5.0000E+01   1.9799E+03   9.3364E-02   1.0000E+00   1.0000E-01
       1     91    131       1       20    5.0000E+01   1.9752E+03   8.2944E-02   1.0000E+00   1.0000E-01
       1     90    131       1       21    5.0000E+01   1.9711E+03   7.5005E-02   1.0000E+00   1.0000E-01
       1     89    131       1       22    6.0355E+01   1.9673E+03   5.4303E-02   1.0000E+00   1.0000E-01
       1     88    132       1       23    6.0355E+01   1.9640E+03   5.0674E-02   1.0000E+00   1.0000E-01
       1     87    132       1       24    5.0000E+01   1.9610E+03   9.2554E-02   1.0000E+00   1.0000E-01
       1     86    132       1       25    5.0000E+01   1.9564E+03   5.7317E-02   1.0000E+00   1.0000E-01
       1     85    132       1       26    5.0000E+01   1.9535E+03   5.2019E-02   1.0000E+00   1.0000E-01
       1     84    132       1       27    6.0355E+01   1.9509E+03   5.7668E-02   1.0000E+00   1.0000E-01
       1     83    133       1       28    6.0355E+01   1.9474E+03   3.8715E-02   1.0000E+00   1.0000E-01
       1     82    133       1       29    6.0355E+01   1.9451E+03   5.5381E-02   1.0000E+00   1.0000E-01
       1     81    134       1       30    7.0711E+01   1.9417E+03   3.6726E-02   1.0000E+00   1.0000E-01
       1     80    135       1       31    6.0355E+01   1.9391E+03   2.6978E-02   1.0000E+00   1.0000E-01
       1     79    135       1       32    2.5000E+01   1.9375E+03   1.0000E-03   1.0000E+00   1.0000E-01
       1    107     69       2        1    1.0000E+03   2.1442E+03   2.4946E-03   1.0000E+00   1.0000E-01
       1    106     69       2        2    6.0355E+01   2.1417E+03   5.1866E-02   1.0000E+00   1.0000E-01
       1    105     70       2        3    6.0355E+01   2.1386E+03   3.0144E-02   1.0000E+00   1.0000E-01
       1    104     70       2        4    5.0000E+01   2.1368E+03   3.1392E-02   1.0000E+00   1.0000E-01
       1    103     70       2        5    5.0000E+01   2.1352E+03   2.6479E-02   1.0000E+00   1.0000E-01
       1    102     70       2        6    5.0000E+01   2.1339E+03   4.2080E-02   1.0000E+00   1.0000E-01
       1    101     70       2        7    5.0000E+01   2.1318E+03   2.5801E-02   1.0000E+00   1.0000E-01
       1    100     70       2        8    5.0000E+01   2.1305E+03   2.4746E-02   1.0000E+00   1.0000E-01
       1     99     70       2        9    6.0355E+01   2.1292E+03   2.8659E-02   1.0000E+00   1.0000E-01
       1     98     71       2       10    6.0355E+01   2.1275E+03   2.0294E-02   1.0000E+00   1.0000E-01
       1     97     71       2       11    5.0000E+01   2.1263E+03   2.6685E-02   1.0000E+00   1.0000E-01
       1     96     71       2       12    5.0000E+01   2.1250E+03   2.6719E-02   1.0000E+00   1.0000E-01
       1     95     71       2       13    6.0355E+01   2.1236E+03   3.7655E-02   1.0000E+00   1.0000E-01
       1     94     70       2       14    6.0355E+01   2.1214E+03   2.6240E-02   1.0000E+00   1.0000E-01
       1     93     70       2       15    6.0355E+01   2.1198E+03   4.2315E-02   1.0000E+00   1.0000E-01
       1     92     69       2       16    7.0711E+01   2.1172E+03   3.2400E-02   1.0000E+00   1.0000E-01
       1     91     68       2       17    6.0355E+01   2.1149E+03   3.4743E-02   1.0000E+00   1.0000E-01
       1     91     67       2       18    6.0355E+01   2.1128E+03   5.1789E-02   1.0000E+00   1.0000E-01
       1     90     66       2       19    6.0355E+01   2.1097E+03   4.2089E-02   1.0000E+00   1.0000E-01
       1     89     66       2       20    5.0000E+01   2.1072E+03   3.3315E-02   1.0000E+00   1.0000E-01
       1     88     66       2       21    5.0000E+01   2.1055E+03   3.8647E-02   1.0000E+00   1.0000E-01
       1     87     66       2       22    5.0000E+01   2.1036E+03   2.3755E-02   1.0000E+00   1.0000E-01
       1     86     66       2       23    6.0355E+01   2.1024E+03   6.2905E-02   1.0000E+00   1.0000E-01
       1     85     67       2       24    6.0355E+01   2.0986E+03   4.9325E-02   1.0000E+00   1.0000E-01
       1     84     67       2       25    5.0000E+01   2.0956E+03   5.7524E-02   1.0000E+00   1.0000E-01
       1     83     67       2       26    5.0000E+01   2.0927E+03   6.8188E-02   1.0000E+00   1.0000E-01
       1     82     67       2       27    5.0000E+01   2.0893E+03   5.3936E-02   1.0000E+00   1.0000E-01
       1     81     67       2       28    6.0355E+01   2.0866E+03   5.8051E-02   1.0000E+00   1.0000E-01
       1     80     68       2       29    6.0355E+01   2.0831E+03   6.5558E-02   1.0000E+00   1.0000E-01
       1     79     68       2       30    5.0000E+01   2.0792E+03   7.0542E-02   1.0000E+00   1.0000E-01
       1     78     68       2       31    6.0355E+01   2.0756E+03   5.6950E-02   1.0000E+00   1.0000E-01
       1     77     69       2       32    6.0355E+01   2.0722E+03   2.6285E-02   1.0000E+00   1.0000E-01
       1     76     69       2       33    5.0000E+01   2.0706E+03   2.5503E-02   1.0000E+00   1.0000E-01
       1     75     69       2       34    5.0000E+01   2.0693E+03   6.2720E-02   1.0000E+00   1.0000E-01
       1     74     69       2       35    5.0000E+01   2.0662E+03   6.8384E-02   1.0000E+00   1.0000E-01
       1     73     69       2       36    6.0355E+01   2.0628E+03   3.3732E-02   1.0000E+00   1.0000E-01
       1     72     68       2       37    6.0355E+01   2.0607E+03   3.7255E-02   1.0000E+00   1.0000E-01
       1     71     68       2       38    5.0000E+01   2.0585E+03   3.9297E-02   1.0000E+00   1.0000E-01
       1     70     68       2       39    6.0355E+01   2.0565E+03   6.7577E-02   1.0000E+00   1.0000E-01
       1     69     69       2       40    3.5355E+01   2.0524E+03   1.0000E-03   1.0000E+00   1.0000E-01
       1    103     91       3        1    9.3741E+02   2.1472E+03   8.2664E-03   1.0000E+00   1.0000E-01
       1    102     91       3        2    6.0355E+01   2.1394E+03   1.1615E-01   1.0000E+00   1.0000E-01
       1    101     90       3        3    6.0355E+01   2.1324E+03   1.3080E-01   1.0000E+00   1.0000E-01
       1    100     90       3        4    6.0355E+01   2.1245E+03   5.8787E-02   1.0000E+00   1.0000E-01
       1     99     89       3        5    7.0711E+01   2.1210E+03   3.3384E-02   1.0000E+00   1.0000E-01
       1     98     88       3        6    7.0711E+01   2.1186E+03   3.0560E-02   1.0000E+00   1.0000E-01
       1     97     87       3        7    6.0355E+01   2.1164E+03   2.5581E-02   1.0000E+00   1.0000E-01
       1     96     87       3        8    5.0000E+01   2.1149E+03   2.4517E-02   1.0000E+00   1.0000E-01
       1     95     87       3        9    6.0355E+01   2.1137E+03   4.2089E-02   1.0000E+00   1.0000E-01
       1     94     86       3       10    7.0711E+01   2.1111E+03   3.6591E-02   1.0000E+00   1.0000E-01
       1     93     85       3       11    7.0711E+01   2.1085E+03   2.1179E-02   1.0000E+00   1.0000E-01
       1     92     84       3       12    6.0355E+01   2.1070E+03   2.9209E-02   1.0000E+00   1.0000E-01
       1     91     84       3       13    6.0355E+01   2.1053E+03   3.8533E-02   1.0000E+00   1.0000E-01
       1     90     83       3       14    6.0355E+01   2.1030E+03   1.1132E-02   1.0000E+00   1.0000E-01
       1     89     83       3       15    5.0000E+01   2.1023E+03   2.3623E-02   1.0000E+00   1.0000E-01
       1     88     83       3       16    5.0000E+01   2.1011E+03   7.9663E-02   1.0000E+00   1.0000E-01
       1     87     83       3       17    5.0000E+01   2.0971E+03   1.2102E-01   1.0000E+00   1.0000E-01
       1     86     83       3       18    5.0000E+01   2.0911E+03   1.0697E-01   1.0000E+00   1.0000E-01
       1     85     83       3       19    5.0000E+01   2.0857E+03   8.8472E-02   1.0000E+00   1.0000E-01
       1     84     83       3       20    5.0000E+01   2.0813E+03   1.0205E-01   1.0000E+00   1.0000E-01
       1     83     83       3       21    5.0000E+01   2.0762E+03   8.0913E-02   1.0000E+00   1.0000E-01
       1     82     83       3       22    5.0000E+01   2.0721E+03   6.8296E-02   1.0000E+00   1.0000E-01
       1     81     83       3       23    6.0355E+01   2.0687E+03   9.4581E-02   1.0000E+00   1.0000E-01
       1     80     82       3       24    6.0355E+01   2.0630E+03   7.8745E-02   1.0000E+00   1.0000E-01
       1     79     82       3       25    6.0355E+01   2.0583E+03   9.2478E-02   1.0000E+00   1.0000E-01
       1     78     81       3       26    6.0355E+01   2.0527E+03   8.6603E-02   1.0000E+00   1.0000E-01
       1     77     81       3       27    5.0000E+01   2.0475E+03   6.1042E-02   1.0000E+00   1.0000E-01
       1     76     81       3       28    5.0000E+01   2.0444E+03   8.1711E-02   1.0000E+00   1.0000E-01
       1     75     81       3       29    6.0355E+01   2.0403E+03   9.9140E-02   1.0000E+00   1.0000E-01
       1     74     82       3       30    6.0355E+01   2.0343E+03   5.5619E-02   1.0000E+00   1.0000E-01
       1     73     82       3       31    6.0355E+01   2.0310E+03   8.7537E-02   1.0000E+00   1.0000E-01
       1     72     83       3       32    6.0355E+01   2.0257E+03   5.7403E-02   1.0000E+00   1.0000E-01
       1     71     83       3       33    5.0000E+01   2.0222E+03   6.0161E-02   1.0000E+00   1.0000E-01
       1     70     83       3       34    6.0355E+01   2.0192E+03   7.5479E-02   1.0000E+00   1.0000E-01
       1     69     84       3       35    6.0355E+01   2.0147E+03   3.4080E-02   1.0000E+00   1.0000E-01
       1     68     84       3       36    2.5000E+01   2.0126E+03   1.0000E-03   1.0000E+00   1.0000E-01
       1     98     21       4        1    1.2418E+03   2.3904E+03   4.1430E-03   1.0000E+00   1.0000E-01
       1     97     22       4        2    7.0711E+01   2.3853E+03   8.8589E-02   1.0000E+00   1.0000E-01
       1     96     23       4        3    6.0355E+01   2.3790E+03   1.0858E-01   1.0000E+00   1.0000E-01
       1     95     23       4        4    5.0000E+01   2.3725E+03   1.1009E-01   1.0000E+00   1.0000E-01
       1     94     23       4        5    6.0355E+01   2.3670E+03   1.0196E-01   1.0000E+00   1.0000E-01
       1     93     24       4        6    7.0711E+01   2.3608E+03   7.6494E-02   1.0000E+00   1.0000E-01
       1     92     25       4        7    7.0711E+01   2.3554E+03   7.1187E-02   1.0000E+00   1.0000E-01
       1     91     26       4        8    6.0355E+01   2.3504E+03   5.9806E-02   1.0000E+00   1.0000E-01
       1     91     27       4        9    5.0000E+01   2.3467E+03   6.3828E-02   1.0000E+00   1.0000E-01
       1     91     28       4       10    6.0355E+01   2.3436E+03   8.8348E-02   1.0000E+00   1.0000E-01
       1     90     29       4       11    6.0355E+01   2.3382E+03   4.6316E-02   1.0000E+00   1.0000E-01
       1     90     30       4       12    6.0355E+01   2.3354E+03   6.2937E-02   1.0000E+00   1.0000E-01
       1     89     31       4       13    6.0355E+01   2.3316E+03   7.1537E-02   1.0000E+00   1.0000E-01
       1     89     32       4       14    5.0000E+01   2.3273E+03   7.3437E-02   1.0000E+00   1.0000E-01
       1     89     33       4       15    5.0000E+01   2.3236E+03   1.1174E-01   1.0000E+00   1.0000E-01
       1     89     34       4       16    5.0000E+01   2.3181E+03   6.6831E-02   1.0000E+00   1.0000E-01
       1     89     35       4       17    5.0000E+01   2.3147E+03   6.1982E-02   1.0000E+00   1.0000E-01
       1     89     36       4       18    6.0355E+01   2.3116E+03   1.8750E-01   1.0000E+00   1.0000E-01
       1     88     37       4       19    6.0355E+01   2.3003E+03   1.1596E-01   1.0000E+00   1.0000E-01
       1     88     38       4       20    6.0355E+01   2.2933E+03   2.4902E-01   1.0000E+00   1.0000E-01
       1     87     39       4       21    7.0711E+01   2.2783E+03   1.8880E-01   1.0000E+00   1.0000E-01
       1     86     40       4       22    7.0711E+01   2.2649E+03   1.7479E-01   1.0000E+00   1.0000E-01
       1     85     41       4       23    7.0711E+01   2.2526E+03   1.9136E-01   1.0000E+00   1.0000E-01
       1     84     42       4       24    7.0711E+01   2.2390E+03   1.3623E-01   1.0000E+00   1.0000E-01
       1     83     43       4       25    7.0711E+01   2.2294E+03   2.2204E-01   1.0000E+00   1.0000E-01
       1     82     44       4       26    6.0355E+01   2.2137E+03   1.3409E-01   1.0000E+00   1.0000E-01
       1     82     45       4       27    5.0000E+01   2.2056E+03   1.4120E-01   1.0000E+00   1.0000E-01
       1     82     46       4       28    5.0000E+01   2.1985E+03   1.3421E-01   1.0000E+00   1.0000E-01
       1     82     47       4       29    5.0000E+01   2.1918E+03   1.5837E-01   1.0000E+00   1.0000E-01
       1     82     48       4       30    5.0000E+01   2.1839E+03   1.1780E-01   1.0000E+00   1.0000E-01
       1     82     49       4       31    5.0000E+01   2.1780E+03   1.0459E-01   1.0000E+00   1.0000E-01
       1     82     50       4       32    6.0355E+01   2.1728E+03   1.4576E-01   1.0000E+00   1.0000E-01
       1     81     51       4       33    6.0355E+01   2.1640E+03   1.0527E-01   1.0000E+00   1.0000E-01
       1     81     52       4       34    6.0355E+01   2.1576E+03   1.4098E-01   1.0000E+00   1.0000E-01
       1     80     53       4       35    7.0711E+01   2.1491E+03   1.3499E-01   1.0000E+00   1.0000E-01
       1     79     54       4       36    7.0711E+01   2.1396E+03   1.2583E-01   1.0000E+00   1.0000E-01
       1     78     55       4       37    7.0711E+01   2.1307E+03   9.7766E-02   1.0000E+00   1.0000E-01
       1     77     56       4       38    7.0711E+01   2.1238E+03   1.1350E-01   1.0000E+00   1.0000E-01
       1     76     57       4       39    6.0355E+01   2.1158E+03   6.4454E-02   1.0000E+00   1.0000E-01
       1     75     57       4       40    6.0355E+01   2.1119E+03   1.1827E-01   1.0000E+00   1.0000E-01
       1     74     58       4       41    7.0711E+01   2.1047E+03   1.0545E-01   1.0000E+00   1.0000E-01
       1     73     59       4       42    7.0711E+01   2.0973E+03   1.2026E-01   1.0000E+00   1.0000E-01
       1     72     60       4       43    3.5355E+01   2.0888E+03   1.0000E-03   1.0000E+00   1.0000E-01
       1     94    110       5        1    5.2749E+02   2.0400E+03   5.2573E-03   1.0000E+00   1.0000E-01
       1     93    110       5        2    5.0000E+01   2.0372E+03   1.0420E-01   1.0000E+00   1.0000E-01
       1     92    110       5        3    5.0000E+01   2.0320E+03   7.5701E-02   1.0000E+00   1.0000E-01
       1     91    110       5        4    6.0355E+01   2.0282E+03   7.8713E-02   1.0000E+00   1.0000E-01
       1     90    111       5        5    6.0355E+01   2.0235E+03   7.3701E-02   1.0000E+00   1.0000E-01
       1     89    111       5        6    5.0000E+01   2.0190E+03   8.1848E-02   1.0000E+00   1.0000E-01
       1     88    111       5        7    5.0000E+01   2.0150E+03   7.5979E-02   1.0000E+00   1.0000E-01
       1     87    111       5        8    5.0000E+01   2.0112E+03   4.9609E-02   1.0000E+00   1.0000E-01
       1     86    111       5        9    6.0355E+01   2.0087E+03   7.1585E-02   1.0000E+00   1.0000E-01
       1     85    110       5       10    6.0355E+01   2.0044E+03   5.8752E-02   1.0000E+00   1.0000E-01
       1     84    110       5       11    5.0000E+01   2.0008E+03   6.8582E-02   1.0000E+00   1.0000E-01
       1     83    110       5       12    5.0000E+01   1.9974E+03   5.6311E-02   1.0000E+00   1.0000E-01
       1     82    110       5       13    5.0000E+01   1.9946E+03   6.1060E-02   1.0000E+00   1.0000E-01
       1     81    110       5       14    6.0355E+01   1.9915E+03   7.3525E-02   1.0000E+00   1.0000E-01
       1     80    111       5       15    6.0355E+01   1.9871E+03   6.6743E-02   1.0000E+00   1.0000E-01
       1     79    111       5       16    5.0000E+01   1.9830E+03   6.8853E-02   1.0000E+00   1.0000E-01
       1     78    111       5       17    5.0000E+01   1.9796E+03   6.0923E-02   1.0000E+00   1.0000E-01
       1     77    111       5       18    5.0000E+01   1.9766E+03   5.7449E-02   1.0000E+00   1.0000E-01
       1     76    111       5       19    5.0000E+01   1.9737E+03   5.4648E-02   1.0000E+00   1.0000E-01
       1     75    111       5       20    5.0000E+01   1.9710E+03   6.9487E-02   1.0000E+00   1.0000E-01
       1     74    111       5       21    2.5000E+01   1.9675E+03   1.0000E-03   1.0000E+00   1.0000E-01
       1     73     48       6        1    3.5382E+02   2.1489E+03   1.8769E-02   1.0000E+00   1.0000E-01
       1     73     49       6        2    5.0000E+01   2.1422E+03   1.3602E-01   1.0000E+00   1.0000E-01
       1     73     50       6        3    6.0355E+01   2.1354E+03   1.1150E-01   1.0000E+00   1.0000E-01
       1     72     51       6        4    6.0355E+01   2.1287E+03   6.7840E-02   1.0000E+00   1.0000E-01
       1     72     52       6        5    6.0355E+01   2.1246E+03   1.0495E-01   1.0000E+00   1.0000E-01
       1     71     53       6        6    6.0355E+01   2.1183E+03   6.3989E-02   1.0000E+00   1.0000E-01
       1     71     54       6        7    5.0000E+01   2.1144E+03   9.2935E-02   1.0000E+00   1.0000E-01
       1     71     55       6        8    5.0000E+01   2.1098E+03   1.0886E-01   1.0000E+00   1.0000E-01
       1     71     56       6        9    5.0000E+01   2.1043E+03   9.6226E-02   1.0000E+00   1.0000E-01
       1     71     57       6       10    5.0000E+01   2.0995E+03   8.7588E-02   1.0000E+00   1.0000E-01
       1     71     58       6       11    5.0000E+01   2.0951E+03   8.6143E-02   1.0000E+00   1.0000E-01
       1     71     59       6       12    5.0000E+01   2.0908E+03   9.1563E-02   1.0000E+00   1.0000E-01
       1     71     60       6       13    2.5000E+01   2.0862E+03   1.0000E-03   1.0000E+00   1.0000E-01
       1     71     61       7        1    3.0931E+02   2.0831E+03   1.3067E-02   1.0000E+00   1.0000E-01
       1     70     62       7        2    6.0355E+01   2.0790E+03   5.4111E-02   1.0000E+00   1.0000E-01
       1     70     63       7        3    6.0355E+01   2.0758E+03   9.1499E-02   1.0000E+00   1.0000E-01
       1     69     64       7        4    6.0355E+01   2.0703E+03   7.0121E-02   1.0000E+00   1.0000E-01
       1     69     65       7        5    5.0000E+01   2.0660E+03   6.3350E-02   1.0000E+00   1.0000E-01
       1     69     66       7        6    5.0000E+01   2.0629E+03   8.8159E-02   1.0000E+00   1.0000E-01
       1     69     67       7        7    5.0000E+01   2.0585E+03   9.2441E-02   1.0000E+00   1.0000E-01
       1     69     68       7        8    2.5000E+01   2.0538E+03   1.0000E-03   1.0000E+00   1.0000E-01
       1     68     69       8        1    4.9649E+02   2.0491E+03   5.2042E-03   1.0000E+00   1.0000E-01
       1     67     70       8        2    7.0711E+01   2.0466E+03   6.7886E-02   1.0000E+00   1.0000E-01
       1     66     71       8        3    7.0711E+01   2.0418E+03   5.5716E-02   1.0000E+00   1.0000E-01
       1     65     72       8        4    6.0355E+01   2.0378E+03   1.8933E-02   1.0000E+00   1.0000E-01
       1     65     73       8        5    6.0355E+01   2.0367E+03   5.9454E-02   1.0000E+00   1.0000E-01
       1     64     74       8        6    6.0355E+01   2.0331E+03   4.0724E-02   1.0000E+00   1.0000E-01
       1     64     75       8        7    5.0000E+01   2.0306E+03   4.8147E-02   1.0000E+00   1.0000E-01
       1     64     76       8        8    5.0000E+01   2.0282E+03   4.1536E-02   1.0000E+00   1.0000E-01
       1     64     77       8        9    5.0000E+01   2.0261E+03   4.3623E-02   1.0000E+00   1.0000E-01
       1     64     78       8       10    5.0000E+01   2.0240E+03   3.5928E-02   1.0000E+00   1.0000E-01
       1     64     79       8       11    6.0355E+01   2.0222E+03   3.2816E-02   1.0000E+00   1.0000E-01
       1     65     80       8       12    6.0355E+01   2.0202E+03   2.5791E-02   1.0000E+00   1.0000E-01
       1     65     81       8       13    6.0355E+01   2.0186E+03   3.9445E-02   1.0000E+00   1.0000E-01
       1     66     82       8       14    6.0355E+01   2.0162E+03   2.9135E-02   1.0000E+00   1.0000E-01
       1     66     83       8       15    6.0355E+01   2.0145E+03   4.5230E-02   1.0000E+00   1.0000E-01
       1     67     84       8       16    3.5355E+01   2.0118E+03   1.0000E-03   1.0000E+00   1.0000E-01
       1     67     85       9        1    5.2196E+02   2.0097E+03   4.2704E-03   1.0000E+00   1.0000E-01
       1     67     86       9        2    5.0000E+01   2.0075E+03   4.6245E-02   1.0000E+00   1.0000E-01
       1     67     87       9        3    6.0355E+01   2.0052E+03   4.8798E-02   1.0000E+00   1.0000E-01
       1     68     88       9        4    6.0355E+01   2.0022E+03   5.2790E-02   1.0000E+00   1.0000E-01
       1     68     89       9        5    6.0355E+01   1.9990E+03   9.6806E-02   1.0000E+00   1.0000E-01
       1     69     90       9        6    6.0355E+01   1.9932E+03   4.9661E-02   1.0000E+00   1.0000E-01
       1     69     91       9        7    6.0355E+01   1.9902E+03   2.3312E-02   1.0000E+00   1.0000E-01
       1     70     92       9        8    6.0355E+01   1.9888E+03   2.7957E-02   1.0000E+00   1.0000E-01
       1     70     93       9        9    5.0000E+01   1.9871E+03   3.1484E-02   1.0000E+00   1.0000E-01
       1     70     94       9       10    5.0000E+01   1.9855E+03   2.6060E-02   1.0000E+00   1.0000E-01
       1     70     95       9       11    5.0000E+01   1.9842E+03   2.8232E-02   1.0000E+00   1.0000E-01
       1     70     96       9       12    6.0355E+01   1.9828E+03   3.0178E-02   1.0000E+00   1.0000E-01
       1     71     97       9       13    6.0355E+01   1.9810E+03   1.7926E-02   1.0000E+00   1.0000E-01
       1     71     98       9       14    5.0000E+01   1.9799E+03   2.2859E-02   1.0000E+00   1.0000E-01
       1     71     99       9       15    5.0000E+01   1.9788E+03   3.3738E-02   1.0000E+00   1.0000E-01
       1     71    100       9       16    5.0000E+01   1.9771E+03   2.0718E-02   1.0000E+00   1.0000E-01
       1     71    101       9       17    2.5000E+01   1.9760E+03   1.0000E-03   1.0000E+00   1.0000E-01
       1     41     88      10        1    8.5265E+02   2.0870E+03   4.4639E-03   1.0000E+00   1.0000E-01
       1     42     88      10        2    6.0355E+01   2.0832E+03   1.4915E-01   1.0000E+00   1.0000E-01
       1     43     89      10        3    6.0355E+01   2.0742E+03   9.7664E-02   1.0000E+00   1.0000E-01
       1     44     89      10        4    5.0000E+01   2.0683E+03   1.2080E-01   1.0000E+00   1.0000E-01
       1     45     89      10        5    5.0000E+01   2.0623E+03   1.1571E-01   1.0000E+00   1.0000E-01
       1     46     89      10        6    5.0000E+01   2.0565E+03   1.0200E-01   1.0000E+00   1.0000E-01
       1     47     89      10        7    5.0000E+01   2.0514E+03   8.3657E-02   1.0000E+00   1.0000E-01
       1     48     89      10        8    5.0000E+01   2.0472E+03   8.0403E-02   1.0000E+00   1.0000E-01
       1     49     89      10        9    6.0355E+01   2.0432E+03   9.8192E-02   1.0000E+00   1.0000E-01
       1     50     90      10       10    6.0355E+01   2.0373E+03   5.0856E-02   1.0000E+00   1.0000E-01
       1     51     90      10       11    6.0355E+01   2.0342E+03   7.9902E-02   1.0000E+00   1.0000E-01
       1     52     91      10       12    6.0355E+01   2.0294E+03   5.0414E-02   1.0000E+00   1.0000E-01
       1     53     91      10       13    6.0355E+01   2.0263E+03   6.3805E-02   1.0000E+00   1.0000E-01
       1     54     92      10       14    7.0711E+01   2.0225E+03   5.5236E-02   1.0000E+00   1.0000E-01
       1     55     93      10       15    6.0355E+01   2.0186E+03   3.8687E-02   1.0000E+00   1.0000E-01
       1     56     93      10       16    6.0355E+01   2.0162E+03   5.9311E-02   1.0000E+00   1.0000E-01
       1     57     94      10       17    6.0355E+01   2.0127E+03   2.9980E-02   1.0000E+00   1.0000E-01
       1     58     94      10       18    6.0355E+01   2.0108E+03   5.4982E-02   1.0000E+00   1.0000E-01
       1     59     95      10       19    6.0355E+01   2.0075E+03   4.6478E-02   1.0000E+00   1.0000E-01
       1     60     95      10       20    5.0000E+01   2.0047E+03   5.4617E-02   1.0000E+00   1.0000E-01
       1     61     95      10       21    5.0000E+01   2.0020E+03   5.0942E-02   1.0000E+00   1.0000E-01
       1     62     95      10       22    5.0000E+01   1.9994E+03   3.2810E-02   1.0000E+00   1.0000E-01
       1     63     95      10       23    6.0355E+01   1.9978E+03   4.0738E-02   1.0000E+00   1.0000E-01
       1     64     96      10       24    7.0711E+01   1.9953E+03   3.6331E-02   1.0000E+00   1.0000E-01
       1     65     97      10       25    6.0355E+01   1.9928E+03   3.9029E-02   1.0000E+00   1.0000E-01
       1     66     97      10       26    6.0355E+01   1.9904E+03   2.5199E-02   1.0000E+00   1.0000E-01
       1     67     98      10       27    6.0355E+01   1.9889E+03   4.6348E-02   1.0000E+00   1.0000E-01
       1     67     99      10       28    6.0355E+01   1.9861E+03   4.9034E-02   1.0000E+00   1.0000E-01
       1     68    100      10       29    7.0711E+01   1.9831E+03   4.8085E-02   1.0000E+00   1.0000E-01
       1     69    101      10       30    7.0711E+01   1.9797E+03   4.7664E-02   1.0000E+00   1.0000E-01
       1     70    102      10       31    3.5355E+01   1.9764E+03   1.0000E-03   1.0000E+00   1.0000E-01
       1     71    102      11        1    3.4636E+02   1.9754E+03   2.4434E-03   1.0000E+00   1.0000E-01
       1     72    103      11        2    7.0711E+01   1.9745E+03   1.0460E-02   1.0000E+00   1.0000E-01
       1     73    104      11        3    6.0355E+01   1.9738E+03   9.9609E-03   1.0000E+00   1.0000E-01
       1     73    105      11        4    5.0000E+01   1.9732E+03   1.7119E-02   1.0000E+00   1.0000E-01
       1     73    106      11        5    5.0000E+01   1.9723E+03   1.2751E-02   1.0000E+00   1.0000E-01
       1     73    107      11        6    5.0000E+01   1.9717E+03   1.3171E-02   1.0000E+00   1.0000E-01
       1     73    108      11        7    5.0000E+01   1.9710E+03   2.4019E-02   1.0000E+00   1.0000E-01
       1     73    109      11        8    5.0000E+01   1.9698E+03   2.2939E-02   1.0000E+00   1.0000E-01
       1     73    110      11        9    5.0000E+01   1.9687E+03   1.9827E-02   1.0000E+00   1.0000E-01
       1     73    111      11       10    2.5000E+01   1.9677E+03   1.0000E-03   1.0000E+00   1.0000E-01
       1     74    112      12        1    4.8847E+02   1.9662E+03   2.5090E-03   1.0000E+00   1.0000E-01
       1     74    113      12        2    5.0000E+01   1.9649E+03   2.9158E-02   1.0000E+00   1.0000E-01
       1     74    114      12        3    5.0000E+01   1.9635E+03   8.9038E-03   1.0000E+00   1.0000E-01
       1     74    115      12        4    5.0000E+01   1.9630E+03   1.0000E-04   1.0000E+00   1.0000E-01
       1     74    116      12        5    5.0000E+01   1.9631E+03   6.4502E-03   1.0000E+00   1.0000E-01
       1     74    117      12        6    5.0000E+01   1.9628E+03   1.0000E-04   1.0000E+00   1.0000E-01
       1     74    118      12        7    5.0000E+01   1.9629E+03   1.7651E-02   1.0000E+00   1.0000E-01
       1     74    119      12        8    6.0355E+01   1.9620E+03   3.8733E-02   1.0000E+00   1.0000E-01
       1     75    120      12        9    6.0355E+01   1.9597E+03   2.6212E-03   1.0000E+00   1.0000E-01
       1     75    121      12       10    6.0355E+01   1.9595E+03   5.8451E-03   1.0000E+00   1.0000E-01
       1     74    122      12       11    7.0711E+01   1.9592E+03   2.8277E-02   1.0000E+00   1.0000E-01
       1     75    123      12       12    7.0711E+01   1.9572E+03   6.7063E-02   1.0000E+00   1.0000E-01
       1     76    124      12       13    6.0355E+01   1.9524E+03   3.6857E-02   1.0000E+00   1.0000E-01
       1     76    125      12       14    5.0000E+01   1.9502E+03   3.6697E-02   1.0000E+00   1.0000E-01
       1     76    126      12       15    5.0000E+01   1.9484E+03   3.3118E-02   1.0000E+00   1.0000E-01
       1     76    127      12       16    2.5000E+01   1.9467E+03   1.0000E-03   1.0000E+00   1.0000E-01
       1     40    124      13        1    2.4749E+02   2.0570E+03   2.0193E-03   1.0000E+00   1.0000E-01
       1     41    123      13        2    6.0355E+01   2.0565E+03   6.3143E-03   1.0000E+00   1.0000E-01
       1     41    122      13        3    5.0000E+01   2.0561E+03   1.2754E-02   1.0000E+00   1.0000E-01
       1     41    121      13        4    5.0000E+01   2.0555E+03   2.3569E-02   1.0000E+00   1.0000E-01
       1     41    120      13        5    5.0000E+01   2.0543E+03   8.7402E-03   1.0000E+00   1.0000E-01
       1     42    120      13        6    5.0000E+01   2.0539E+03   1.4253E-02   1.0000E+00   1.0000E-01
       1     43    120      13        7    6.0355E+01   2.0531E+03   2.6058E-02   1.0000E+00   1.0000E-01
       1     44    119      13        8    7.0711E+01   2.0516E+03   3.3519E-02   1.0000E+00   1.0000E-01
       1     45    118      13        9    3.5355E+01   2.0492E+03   1.0000E-03   1.0000E+00   1.0000E-01
       1     34    111      14        1    3.7231E+02   2.0851E+03   3.6040E-03   1.0000E+00   1.0000E-01
       1     35    111      14        2    6.0355E+01   2.0837E+03   4.7133E-02   1.0000E+00   1.0000E-01
       1     36    112      14        3    6.0355E+01   2.0809E+03   3.3590E-02   1.0000E+00   1.0000E-01
       1     37    112      14        4    6.0355E+01   2.0789E+03   5.2723E-02   1.0000E+00   1.0000E-01
       1     38    113      14        5    7.0711E+01   2.0757E+03   6.8170E-02   1.0000E+00   1.0000E-01
       1     39    114      14        6    6.0355E+01   2.0709E+03   8.1318E-02   1.0000E+00   1.0000E-01
       1     40    114      14        7    6.0355E+01   2.0660E+03   9.0569E-02   1.0000E+00   1.0000E-01
       1     41    115      14        8    7.0711E+01   2.0605E+03   5.3541E-02   1.0000E+00   1.0000E-01
       1     42    116      14        9    7.0711E+01   2.0567E+03   6.4848E-02   1.0000E+00   1.0000E-01
       1     43    117      14       10    6.0355E+01   2.0521E+03   2.3631E-02   1.0000E+00   1.0000E-01
       1     44    117      14       11    5.0000E+01   2.0507E+03   2.1812E-02   1.0000E+00   1.0000E-01
       1     45    117      14       12    2.5000E+01   2.0496E+03   1.0000E-03   1.0000E+00   1.0000E-01
       1     46    118      15        1    8.7592E+02   2.0461E+03   2.8290E-04   1.0000E+00   1.0000E-01
       1     47    118      15        2    5.0000E+01   2.0458E+03   1.3257E-03   1.0000E+00   1.0000E-01
       1     48    118      15        3    6.0355E+01   2.0457E+03   1.4117E-03   1.0000E+00   1.0000E-01
       1     49    119      15        4    6.0355E+01   2.0457E+03   3.9581E-03   1.0000E+00   1.0000E-01
       1     49    120      15        5    5.0000E+01   2.0454E+03   6.7017E-03   1.0000E+00   1.0000E-01
       1     49    121      15        6    6.0355E+01   2.0451E+03   5.7986E-03   1.0000E+00   1.0000E-01
       1     50    122      15        7    7.0711E+01   2.0447E+03   9.4603E-03   1.0000E+00   1.0000E-01
       1     51    123      15        8    6.0355E+01   2.0441E+03   6.9757E-03   1.0000E+00   1.0000E-01
       1     52    123      15        9    6.0355E+01   2.0436E+03   1.7418E-02   1.0000E+00   1.0000E-01
       1     53    124      15       10    6.0355E+01   2.0426E+03   7.0809E-03   1.0000E+00   1.0000E-01
       1     54    124      15       11    5.0000E+01   2.0422E+03   4.0288E-02   1.0000E+00   1.0000E-01
       1     55    124      15       12    5.0000E+01   2.0402E+03   4.6206E-02   1.0000E+00   1.0000E-01
       1     56    124      15       13    6.0355E+01   2.0378E+03   6.7931E-02   1.0000E+00   1.0000E-01
       1     57    125      15       14    6.0355E+01   2.0337E+03   3.2587E-02   1.0000E+00   1.0000E-01
       1     58    125      15       15    5.0000E+01   2.0318E+03   6.2324E-02   1.0000E+00   1.0000E-01
       1     59    125      15       16    6.0355E+01   2.0287E+03   8.3506E-02   1.0000E+00   1.0000E-01
       1     60    126      15       17    6.0355E+01   2.0236E+03   7.1941E-02   1.0000E+00   1.0000E-01
       1     61    126      15       18    6.0355E+01   2.0193E+03   1.2086E-01   1.0000E+00   1.0000E-01
       1     62    127      15       19    6.0355E+01   2.0120E+03   4.9030E-02   1.0000E+00   1.0000E-01
       1     63    127      15       20    5.0000E+01   2.0090E+03   6.5464E-02   1.0000E+00   1.0000E-01
       1     64    127      15       21    5.0000E+01   2.0058E+03   6.9609E-02   1.0000E+00   1.0000E-01
       1     65    127      15       22    6.0355E+01   2.0023E+03   7.0758E-02   1.0000E+00   1.0000E-01
       1     66    126      15       23    6.0355E+01   1.9980E+03   1.7359E-01   1.0000E+00   1.0000E-01
       1     67    126      15       24    5.0000E+01   1.9875E+03   1.6075E-01   1.0000E+00   1.0000E-01
       1     68    126      15       25    5.0000E+01   1.9795E+03   1.0914E-01   1.0000E+00   1.0000E-01
       1     69    126      15       26    5.0000E+01   1.9740E+03   1.0981E-01   1.0000E+00   1.0000E-01
       1     70    126      15       27    5.0000E+01   1.9685E+03   7.9744E-02   1.0000E+00   1.0000E-01
       1     71    126      15       28    5.0000E+01   1.9646E+03   9.0435E-02   1.0000E+00   1.0000E-01
       1     72    126      15       29    5.0000E+01   1.9600E+03   6.8867E-02   1.0000E+00   1.0000E-01
       1     73    126      15       30    5.0000E+01   1.9566E+03   7.5833E-02   1.0000E+00   1.0000E-01
       1     74    126      15       31    6.0355E+01   1.9528E+03   8.1540E-02   1.0000E+00   1.0000E-01
       1     75    127      15       32    3.5355E+01   1.9479E+03   1.0000E-03   1.0000E+00   1.0000E-01
       1     76    128      16        1    2.9151E+02   1.9448E+03   5.2164E-03   1.0000E+00   1.0000E-01
       1     76    129      16        2    5.0000E+01   1.9433E+03   3.0359E-02   1.0000E+00   1.0000E-01
       1     76    130      16        3    6.0355E+01   1.9418E+03   3.2369E-02   1.0000E+00   1.0000E-01
       1     77    131      16        4    6.0355E+01   1.9399E+03   1.3573E-02   1.0000E+00   1.0000E-01
       1     77    132      16        5    5.0000E+01   1.9390E+03   1.8135E-02   1.0000E+00   1.0000E-01
       1     77    133      16        6    6.0355E+01   1.9381E+03   2.2157E-02   1.0000E+00   1.0000E-01
       1     78    134      16        7    6.0355E+01   1.9368E+03   1.3519E-02   1.0000E+00   1.0000E-01
       1     78    135      16        8    2.5000E+01   1.9360E+03   1.0000E-03   1.0000E+00   1.0000E-01
       1     78    136      17        1    8.8891E+01   1.9352E+03   1.0287E-02   1.0000E+00   1.0000E-01
       1     78    137      17        2    5.0000E+01   1.9343E+03   1.4448E-02   1.0000E+00   1.0000E-01
       1     78    138      17        3    5.0000E+01   1.9335E+03   1.3853E-02   1.0000E+00   1.0000E-01
       1     78    139      17        4    6.0355E+01   1.9329E+03   3.0399E-02   1.0000E+00   1.0000E-01
       1     77    140      17        5    6.0355E+01   1.9310E+03   1.6704E-02   1.0000E+00   1.0000E-01
       1     77    141      17        6    2.5000E+01   1.9300E+03   1.0000E-03   1.0000E+00   1.0000E-01




 UZF1 -- UNSATURATED FLOW PACKAGE, VERSION 1.5, 09/10/2019
         INPUT READ FROM UNIT 19
 # UZF package for MODFLOW-NWT generated by Flopy 3.4.3
 No named parameters



            AREAL EXTENT OF UZ FLOW
 READING ON UNIT   19 WITH FORMAT: (FREE)              
 OPTION 1 -- RECHARGE IN UZF TO TOP LAYER ONLY 



            ROUTING OVERLAND RUNOFF
 READING ON UNIT   19 WITH FORMAT: (FREE)              

     SATURATED VERTICAL K =   1.00000    

     BROOKS-COREY EPSILON =   3.50000    

  SATURATED WATER CONTENT =  0.250000    
1
                            STRESS PERIOD NO.    1, LENGTH =   1.000000    
                            -----------------------------------------------

                              NUMBER OF TIME STEPS =     1

                               MULTIPLIER FOR DELT =     1.000

                            INITIAL TIME STEP SIZE =   1.000000    



 CLASSIFICATION & COUNT OF STREAM SEGMENTS BASED ON SOURCE OF INFLOW:

                HEADWATER     DIVERSION     RECEIVES TRIBUTARY FLOW
                ---------     ---------     -----------------------
                     9              0               8



                    INPUT DATA FOR EACH STREAM SEGMENT
 ---------------------------------------------------------------------------------------------

 SEGMENT    SEG.     INFLOW   OVERLAND   STREAM    STREAM   ICALC  OUTFLOW  DIVERSION PRIORITY
    NO.    LENGTH     RATE     RUNOFF      ET       PPT.    METH.  TO SEG.  FROM SEG.    NO.

      1  2.501E+03 0.000E+00 0.000E+00 0.000E+00 0.000E+00    1       17        0        0
      2  3.153E+03 0.000E+00 0.000E+00 0.000E+00 0.000E+00    1        8        0        0
      3  2.932E+03 0.000E+00 0.000E+00 0.000E+00 0.000E+00    1        9        0        0
      4  3.783E+03 0.000E+00 0.000E+00 0.000E+00 0.000E+00    1        7        0        0
      5  1.565E+03 0.000E+00 0.000E+00 0.000E+00 0.000E+00    1       12        0        0
      6  9.702E+02 0.000E+00 0.000E+00 0.000E+00 0.000E+00    1        7        0        0
      7  6.654E+02 0.000E+00 0.000E+00 0.000E+00 0.000E+00    1        8        0        0
      8  1.356E+03 0.000E+00 0.000E+00 0.000E+00 0.000E+00    1        9        0        0
      9  1.380E+03 0.000E+00 0.000E+00 0.000E+00 0.000E+00    1       11        0        0
     10  2.597E+03 0.000E+00 0.000E+00 0.000E+00 0.000E+00    1       11        0        0
     11  8.024E+02 0.000E+00 0.000E+00 0.000E+00 0.000E+00    1       12        0        0
     12  1.296E+03 0.000E+00 0.000E+00 0.000E+00 0.000E+00    1       16        0        0
     13  6.743E+02 0.000E+00 0.000E+00 0.000E+00 0.000E+00    1       15        0        0
     14  1.022E+03 0.000E+00 0.000E+00 0.000E+00 0.000E+00    1       15        0        0
     15  2.587E+03 0.000E+00 0.000E+00 0.000E+00 0.000E+00    1       16        0        0
     16  6.579E+02 0.000E+00 0.000E+00 0.000E+00 0.000E+00    1       17        0        0
     17  3.346E+02 0.000E+00 0.000E+00 0.000E+00 0.000E+00    1        0        0        0


         STREAMBED PROPERTIES AND STREAM DIMENSIONS

 SEGMENT     WIDTH OF STREAM     DEPTH OF STREAM    STREAM ROUGHNESS
    No.     UPPER     LOWER     UPPER     LOWER     CHANNEL      BANK

     1    1.000E+01 1.000E+01                      4.000E-02
     2    1.000E+01 1.000E+01                      4.000E-02
     3    1.000E+01 1.000E+01                      4.000E-02
     4    1.000E+01 1.000E+01                      4.000E-02
     5    1.000E+01 1.000E+01                      4.000E-02
     6    1.000E+01 1.000E+01                      4.000E-02
     7    1.000E+01 1.000E+01                      4.000E-02
     8    1.000E+01 1.000E+01                      4.000E-02
     9    1.000E+01 1.000E+01                      4.000E-02
    10    1.000E+01 1.000E+01                      4.000E-02
    11    1.000E+01 1.000E+01                      4.000E-02
    12    1.000E+01 1.000E+01                      4.000E-02
    13    1.000E+01 1.000E+01                      4.000E-02
    14    1.000E+01 1.000E+01                      4.000E-02
    15    1.000E+01 1.000E+01                      4.000E-02
    16    1.000E+01 1.000E+01                      4.000E-02
    17    1.000E+01 1.000E+01                      4.000E-02






            AREAL INFILTRATION RATE
 READING ON UNIT   19 WITH FORMAT: (FREE)              

    ------------------------------------------------
       NWT REQUIRED            6 OUTER ITERATIONS 
       AND A TOTAL OF          6 INNER ITERATIONS.
    ------------------------------------------------

 OUTPUT CONTROL FOR STRESS PERIOD    1   TIME STEP    1
    PRINT HEAD FOR ALL LAYERS
    PRINT BUDGET
    SAVE HEAD FOR ALL LAYERS
    SAVE BUDGET


UNSATURATED ZONE PACKAGE VOLUMETRIC BUDGET FOR  TIME STEP     1 STRESS PERIOD    1
  ------------------------------------------------------------------------------



     CUMULATIVE VOLUMES      L**3       RATES FOR THIS TIME STEP      L**3/T
     ------------------                 ------------------------

           IN:                                      IN:
           ---                                      ---
        INFILTRATION =      540529.1225          INFILTRATION =      540529.1225

          OUT:                                     OUT:
          ----                                     ----
              UZF ET =       0.0000E+00                UZF ET =       0.0000E+00
        UZF RECHARGE =      540529.1225          UZF RECHARGE =      540529.1225

            IN - OUT =       0.0000E+00              IN - OUT =       0.0000E+00

          STORAGE:                                 STORAGE:
          --------                                 --------
      STORAGE CHANGE =       0.0000E+00        STORAGE CHANGE =       0.0000E+00

 PERCENT DISCREPANCY IS DIFFERENCE BETWEEN IN-OUT MINUS CHANGE IN STORAGE
 DIVIDED BY THE AVERAGE OF IN AND OUT TIMES 100

 PERCENT DISCREPANCY =           0.00     PERCENT DISCREPANCY =           0.00






1
              HEAD IN LAYER 1 AT END OF TIME STEP 1 IN STRESS PERIOD 1
  ---------------------------------------------------------------------------

          1      2      3      4      5      6      7      8      9     10
         11     12     13     14     15     16     17     18     19     20
         21     22     23     24     25     26     27     28     29     30
         31     32     33     34     35     36     37     38     39     40
         41     42     43     44     45     46     47     48     49     50
         51     52     53     54     55     56     57     58     59     60
         61     62     63     64     65     66     67     68     69     70
         71     72     73     74     75     76     77     78     79     80
         81     82     83     84     85     86     87     88     89     90
         91     92     93     94     95     96     97     98     99    100
        101    102    103    104    105    106    107    108    109    110
        111    112    113    114    115    116    117    118    119    120
        121    122    123    124    125    126    127    128    129    130
        131    132    133    134    135    136    137    138    139    140
        141    142    143    144    145    146    147    148    149
 .........................................................................
   1  ****** ****** ****** ****** ****** ****** ****** ****** ****** ******
      ****** ****** ****** ****** ****** ****** ****** ****** ****** ******
      ****** ****** ****** ****** ****** ****** ****** ****** ****** ******
      ****** ****** ****** ****** ****** ****** ****** ****** ****** ******
      ****** ****** ****** ****** ****** ****** ****** ****** ****** ******
      ****** ****** ****** ****** ****** ****** ****** ****** ****** ******
      ****** ****** ****** ****** ****** ****** ****** ****** ****** ******
      ****** ****** ****** ****** ****** ****** ****** ****** ****** ******
      ****** ****** ****** ****** ****** ****** ****** ****** ****** ******
      ****** ****** ****** ****** ****** ****** ****** ****** ****** ******
      ****** ****** ****** ****** ****** ****** ****** ****** ****** ******
      ****** ****** ****** ****** ****** ****** ****** ****** ****** ******
      ****** ****** ****** ****** ****** ****** ****** ****** ****** ******
      ****** ****** ****** ****** ****** ****** ****** ****** ****** ******
      ****** ****** ****** ****** ****** ****** ****** ****** ******
   2  ****** ****** ****** ****** ****** ****** ****** ****** ****** ******
      ****** ****** ****** ****** ****** ****** ****** ****** ****** ******
      ****** ****** ****** ****** ****** ****** ****** ****** ****** ******
      ****** ****** ****** ****** ****** ****** ****** ****** ****** ******
      ****** ****** ****** ****** ****** ****** ****** ****** ****** ******
      ****** ****** ****** ****** ****** ****** ****** ****** ****** ******
      ****** ****** ****** ****** ****** ****** ****** ****** ****** ******
      ****** ****** ****** ****** ****** ****** ****** ****** ****** ******
      ****** ****** ****** ****** ****** ****** ****** ****** ****** ******
      ****** ****** ****** ****** ****** ****** ****** ****** ****** ******
      ****** ****** ****** ****** ****** ****** ****** ****** ****** ******
      ****** ****** ****** ****** ****** ****** ****** ****** ****** ******
      ****** ****** ****** ****** ****** ****** ****** ****** ****** ******
      ****** ****** ****** ****** ****** ****** ****** ****** ****** ******
      ****** ****** ****** ****** ****** ****** ****** ****** ******
   3  ****** ****** ****** ****** ****** ****** ****** ****** ****** ******
      ****** ****** ****** ****** ****** ****** ****** ****** ****** ******
      ****** ****** ****** ****** ****** ****** ****** ****** ****** ******
      ****** ****** ****** ****** ****** ****** ****** ****** ****** ******
      ****** ****** ****** ****** ****** ****** ****** ****** ****** ******
      ****** ****** ****** ****** ****** ****** ****** ****** ****** ******
      ****** ****** ****** ****** ****** ****** ****** ****** ****** ******
      ****** ****** ****** ****** ****** ****** ****** ****** ****** ******
      ****** ****** ****** ****** ****** ****** ****** ****** ****** ******
      ****** ****** ****** ****** ****** ****** ****** ****** ****** ******
      ****** ****** ****** ****** ****** ****** ****** ****** ****** ******
      ****** ****** ****** ****** ****** ****** ****** ****** ****** ******
      ****** ****** ****** ****** ****** ****** ****** ****** ****** ******
      ****** ****** ****** ****** ****** ****** ****** ****** ****** ******
      ****** ****** ****** ****** ****** ****** ****** ****** ******
   4  ****** ****** ****** ****** ****** ****** ****** ****** ****** ******
      ****** ****** ****** ****** ****** ****** ****** ****** ****** ******
      ****** ****** ****** ****** ****** ****** ****** ****** ****** ******
      ****** ****** ****** ****** ****** ****** ****** ****** ****** ******
      ****** ****** ****** ****** ****** ****** ****** ****** ****** ******
      ****** ****** ****** ****** ****** ****** ****** ****** ****** ******
      ****** ****** ****** ****** ****** ****** ****** ****** ****** ******
      ****** ****** ****** ****** ****** ****** ****** ****** ****** ******
      ****** ****** ****** ****** ****** ****** ****** ****** ****** ******
      ****** ****** ****** ****** ****** ****** ****** ****** ****** ******
      ****** ****** ****** ****** ****** ****** ****** ****** ****** ******
      ****** ****** ****** ****** ****** ****** ****** ****** ****** ******
      ****** ****** ****** ****** ****** ****** ****** ****** ****** ******
      ****** ****** ****** ****** ****** ****** ****** ****** ****** ******
      ****** ****** ****** ****** ****** ****** ****** ****** ******
   5  ****** ****** ****** ****** ****** ****** ****** ****** ****** ******
      ****** ****** ****** ****** ****** ****** ****** ****** ****** ******
      ****** ****** ****** ****** ****** ****** ****** ****** ****** ******
      ****** ****** ****** ****** ****** ****** ****** ****** ****** ******
      ****** ****** ****** ****** ****** ****** ****** ****** ****** ******
      ****** ****** ****** ****** ****** ****** ****** ****** ****** ******
      ****** ****** ****** ****** ****** ****** ****** ****** ****** ******
      ****** ****** ****** ****** ****** ****** ****** ****** ****** ******
      ****** ****** ****** ****** ****** ****** ****** ****** ****** ******
      ****** ****** ****** ****** ****** ****** ****** ****** ****** ******
      ****** ****** ****** ****** ****** ****** ****** ****** ****** ******
      ****** ****** ****** ****** ****** ****** ****** ****** ****** ******
      ****** ****** ****** ****** ****** ****** ****** ****** ****** ******
      ****** ****** ****** ****** ****** ****** ****** ****** ****** ******
      ****** ****** ****** ****** ****** ****** ****** ****** ******
   6  ****** ****** ****** ****** ****** ****** ****** ****** ****** ******
      ****** ****** ****** ****** ****** ****** ****** ****** ****** ******
      ****** ****** ****** ****** ****** ****** ****** ****** ****** ******
      ****** ****** ****** ****** ****** ****** ****** ****** ****** ******
      ****** ****** ****** ****** ****** ****** ****** ****** ****** ******
      ****** ****** ****** ****** ****** ****** ****** ****** ****** ******
      ****** ****** ****** ****** ****** ****** ****** ****** ****** ******
      ****** ****** ****** ****** ****** ****** ****** ****** ****** ******
      ****** ****** ****** ****** ****** ****** ****** ****** ****** ******
      ****** ****** ****** ****** ****** ****** ****** ****** ****** ******
      ****** ****** ****** ****** ****** ****** ****** ****** ****** ******
      ****** ****** ****** ****** ****** ****** ****** ****** ****** ******
      ****** ****** ****** ****** ****** ****** ****** ****** ****** ******
      ****** ****** ****** ****** ****** ****** ****** ****** ****** ******
      ****** ****** ****** ****** ****** ****** ****** ****** ******
   7  ****** ****** ****** ****** ****** ****** ****** ****** ****** ******
      ****** ****** ****** ****** ****** ****** ****** ****** ****** ******
      ****** ****** ****** ****** ****** ****** ****** ****** ****** ******
      ****** ****** ****** ****** ****** ****** ****** ****** ****** ******
      ****** ****** ****** ****** ****** ****** ****** ****** ****** ******
      ****** ****** ****** ****** ****** ****** ****** ****** ****** ******
      ****** ****** ****** ****** ****** ****** ****** ****** ****** ******
      ****** ****** ****** ****** ****** ****** ****** ****** ****** ******
      ****** ****** ****** ****** ****** ****** ****** ****** ****** ******
      ****** ****** ****** ****** ****** ****** ****** ****** ****** ******
      ****** ****** ****** ****** ****** ****** ****** ****** ****** ******
      ****** ****** ****** ****** ****** ****** ****** ****** ****** ******
      ****** ****** ****** ****** ****** ****** ****** ****** ****** ******
      ****** ****** ****** ****** ****** ****** ****** ****** ****** ******
      ****** ****** ****** ****** ****** ****** ****** ****** ******
   8  ****** ****** ****** ****** ****** ****** ****** ****** ****** ******
      ****** ****** ****** ****** ****** ****** ****** ****** ****** ******
      ****** ****** ****** ****** ****** ****** ****** ****** ****** ******
      ****** ****** ****** ****** ****** ****** ****** ****** ****** ******
      ****** ****** ****** ****** ****** ****** ****** ****** ****** ******
      ****** ****** ****** ****** ****** ****** ****** ****** ****** ******
      ****** ****** ****** ****** ****** ****** ****** ****** ****** ******
      ****** ****** ****** ****** ****** ****** ****** ****** ****** ******
      ****** ****** ****** ****** ****** ****** ****** ****** ****** ******
      ****** ****** ****** ****** ****** ****** ****** ****** ****** ******
      ****** ****** ****** ****** ****** ****** ****** ****** ****** ******
      ****** ****** ****** ****** ****** ****** ****** ****** ****** ******
      ****** ****** ****** ****** ****** ****** ****** ****** ****** ******
      ****** ****** ****** ****** ****** ****** ****** ****** ****** ******
      ****** ****** ****** ****** ****** ****** ****** ****** ******
   9  ****** ****** ****** ****** ****** ****** ****** ****** ****** ******
      ****** ****** ****** ****** ****** ****** ****** ****** ****** ******
      ****** ****** ****** ****** ****** ****** ****** ****** ****** ******
      ****** ****** ****** ****** ****** ****** ****** ****** ****** ******
      ****** ****** ****** ****** ****** ****** ****** ****** ****** ******
      ****** ****** ****** ****** ****** ****** ****** ****** ****** ******
      ****** ****** ****** ****** ****** ****** ****** ****** ****** ******
      ****** ****** ****** ****** ****** ****** ****** ****** ****** ******
      ****** ****** ****** ****** ****** ****** ****** ****** ****** ******
      ****** ****** ****** ****** ****** ****** ****** ****** ****** ******
      ****** ****** ****** ****** ****** ****** ****** ****** ****** ******
      ****** ****** ****** ****** ****** ****** ****** ****** ****** ******
      ****** ****** ****** ****** ****** ****** ****** ****** ****** ******
      ****** ****** ****** ****** ****** ****** ****** ****** ****** ******
      ****** ****** ****** ****** ****** ****** ****** ****** ******
  10  ****** ****** ****** ****** ****** ****** ****** ****** ****** ******
      ****** ****** ****** ****** ****** ****** ****** ****** ****** ******
      ****** ****** ****** ****** ****** ****** ****** ****** ****** ******
      ****** ****** ****** ****** ****** ****** ****** ****** ****** ******
      ****** ****** ****** ****** ****** ****** ****** ****** ****** ******
      ****** ****** ****** ****** ****** ****** ****** ****** ****** ******
      ****** ****** ****** ****** ****** ****** ****** ****** ****** ******
      ****** ****** ****** ****** ****** ****** ****** ****** ****** ******
      ****** ****** ****** ****** ****** ****** ****** ****** ****** ******
      ****** ****** ****** ****** ****** ****** ****** ****** ****** ******
      ****** ****** ****** ****** ****** ****** ****** ****** ****** ******
      ****** ****** ****** ****** ****** ****** ****** ****** ****** ******
      ****** ****** ****** ****** ****** ****** ****** ****** ****** ******
      ****** ****** ****** ****** ****** ****** ****** ****** ****** ******
      ****** ****** ****** ****** ****** ****** ****** ****** ******
  11  ****** ****** ****** ****** ****** ****** ****** ****** ****** ******
      ****** ****** ****** ****** ****** ****** ****** ****** ****** ******
      ****** ****** ****** ****** ****** ****** ****** ****** ****** ******
      ****** ****** ****** ****** ****** ****** ****** ****** ****** ******
      ****** ****** ****** ****** ****** ****** ****** ****** ****** ******
      ****** ****** ****** ****** ****** ****** ****** ****** ****** ******
      ****** ****** ****** ****** ****** ****** ****** ****** ****** ******
      ****** ****** ****** ****** ****** ****** ****** ****** ****** ******
      ****** ****** ****** ****** ****** ****** ****** ****** ****** ******
      ****** ****** ****** ****** ****** ****** ****** ****** ****** ******
      ****** ****** ****** ****** ****** ****** ****** ****** ****** ******
      ****** ****** ****** ****** ****** ****** ****** ****** ****** ******
      ****** ****** ****** ****** ****** ****** ****** ****** ****** ******
      ****** ****** ****** ****** ****** ****** ****** ****** ****** ******
      ****** ****** ****** ****** ****** ****** ****** ****** ******
  12  ****** ****** ****** ****** ****** ****** ****** ****** ****** ******
      ****** ****** ****** ****** ****** ****** ****** ****** ****** ******
      ****** ****** ****** ****** ****** ****** ****** ****** ****** ******
      ****** ****** ****** ****** ****** ****** ****** ****** ****** ******
      ****** ****** ****** ****** ****** ****** ****** ****** ****** ******
      ****** ****** ****** ****** ****** ****** ****** ****** ****** ******
      ****** ****** ****** ****** ****** ****** ****** ****** ****** ******
      ****** ****** ****** ****** ****** ****** ****** ****** ****** ******
      ****** ****** ****** ****** ****** ****** ****** ****** ****** ******
      ****** ****** ****** ****** ****** ****** ****** ****** ****** ******
      ****** ****** ****** ****** ****** ****** ****** ****** ****** ******
      ****** ****** ****** ****** ****** ****** ****** ****** ****** ******
      ****** ****** ****** ****** ****** ****** ****** ****** ****** ******
      ****** ****** ****** ****** ****** ****** ****** ****** ****** ******
      ****** ****** ****** ****** ****** ****** ****** ****** ******
  13  ****** ****** ****** ****** ****** ****** ****** ****** ****** ******
      ****** ****** ****** ****** ****** ****** ****** ****** ****** ******
      ****** ****** ****** ****** ****** ****** ****** ****** ****** ******
      ****** ****** ****** ****** ****** ****** ****** ****** ****** ******
      ****** ****** ****** ****** ****** ****** ****** ****** ****** ******
      ****** ****** ****** ****** ****** ****** ****** ****** ****** ******
      ****** ****** ****** ****** ****** ****** ****** ****** ****** ******
      ****** ****** ****** ****** ****** ****** ****** ****** ****** ******
      ****** ****** ****** ****** ****** ****** ****** ****** ****** ******
      ****** ****** ****** ****** ****** ****** ****** ****** ****** ******
      ****** ****** ****** ****** ****** ****** ****** ****** ****** ******
      ****** ****** ****** ****** ****** ****** ****** ****** ****** ******
      ****** ****** ****** ****** ****** ****** ****** ****** ****** ******
      ****** ****** ****** ****** ****** ****** ****** ****** ****** ******
      ****** ****** ****** ****** ****** ****** ****** ****** ******
  14  ****** ****** ****** ****** ****** ****** ****** ****** ****** ******
      ****** ****** ****** ****** ****** ****** ****** ****** ****** ******
      ****** ****** ****** ****** ****** ****** ****** ****** ****** ******
      ****** ****** ****** ****** ****** ****** ****** ****** ****** ******
      ****** ****** ****** ****** ****** ****** ****** ****** ****** ******
      ****** ****** ****** ****** ****** ****** ****** ****** ****** ******
      ****** ****** ****** ****** ****** ****** ****** ****** ****** ******
      ****** ****** ****** ****** ****** ****** ****** ****** ****** ******
      ****** ****** ****** ****** ****** ****** ****** ****** ****** ******
      ****** ****** ****** ****** ****** ****** ****** ****** ****** ******
      ****** ****** ****** ****** ****** ****** ****** ****** ****** ******
      ****** ****** ****** ****** ****** ****** ****** ****** ****** ******
      ****** ****** ****** ****** ****** ****** ****** ****** ****** ******
      ****** ****** ****** ****** ****** ****** ****** ****** ****** ******
      ****** ****** ****** ****** ****** ****** ****** ****** ******
  15  ****** ****** ****** ****** ****** ****** ****** ****** ****** ******
      ****** ****** ****** ****** ****** ****** ****** ****** ****** ******
      ****** ****** ****** ****** ****** ****** ****** ****** ****** ******
      ****** ****** ****** ****** ****** ****** ****** ****** ****** ******
      ****** ****** ****** ****** ****** ****** ****** ****** ****** ******
      ****** ****** ****** ****** ****** ****** ****** ****** ****** ******
      ****** ****** ****** ****** ****** ****** ****** ****** ****** ******
      ****** ****** ****** ****** ****** ****** ****** ****** ****** ******
      ****** ****** ****** ****** ****** ****** ****** ****** ****** ******
      ****** ****** ****** ****** ****** ****** ****** ****** ****** ******
      ****** ****** ****** ****** ****** ****** ****** ****** ****** ******
      ****** ****** ****** ****** ****** ****** ****** ****** ****** ******
      ****** ****** ****** ****** ****** ****** ****** ****** ****** ******
      ****** ****** ****** ****** ****** ****** ****** ****** ****** ******
      ****** ****** ****** ****** ****** ****** ****** ****** ******
  16  ****** ****** ****** ****** ****** ****** ****** ****** ****** ******
      ****** ****** ****** ****** ****** ****** ****** ****** ****** ******
      ****** ****** ****** ****** ****** ****** ****** ****** ****** ******
      ****** ****** ****** ****** ****** ****** ****** ****** ****** ******
      ****** ****** ****** ****** ****** ****** ****** ****** ****** ******
      ****** ****** ****** ****** ****** ****** ****** ****** ****** ******
      ****** ****** ****** ****** ****** ****** ****** ****** ****** ******
      ****** ****** ****** ****** ****** ****** ****** ****** ****** ******
      ****** ****** ****** ****** ****** ****** ****** ****** ****** ******
      ****** ****** ****** ****** ****** ****** ****** ****** ****** ******
      ****** ****** ****** ****** ****** ****** ****** ****** ****** ******
      ****** ****** ****** ****** ****** ****** ****** ****** ****** ******
      ****** ****** ****** ****** ****** ****** ****** ****** ****** ******
      ****** ****** ****** ****** ****** ****** ****** ****** ****** ******
      ****** ****** ****** ****** ****** ****** ****** ****** ******
  17  ****** ****** ****** ****** ****** ****** ****** ****** ****** ******
      ****** ****** ****** ****** ****** ****** ****** ****** ****** ******
      ****** ****** ****** ****** ****** ****** ****** ****** ****** ******
      ****** ****** ****** ****** ****** ****** ****** ****** ****** ******
      ****** ****** ****** ****** ****** ****** ****** ****** ****** ******
      ****** ****** ****** ****** ****** ****** ****** ****** ****** ******
      ****** ****** ****** ****** ****** ****** ****** ****** ****** ******
      ****** ****** ****** ****** ****** ****** ****** ****** ****** ******
      ****** ****** ****** ****** ****** ****** ****** ****** ****** ******
      ****** ****** ****** ****** ****** ****** ****** ****** ****** ******
      ****** ****** ****** ****** ****** ****** ****** ****** ****** ******
      ****** ****** ****** ****** ****** ****** ****** ****** ****** ******
      ****** ****** ****** ****** ****** ****** ****** ****** ****** ******
      ****** ****** ****** ****** ****** ****** ****** ****** ****** ******
      ****** ****** ****** ****** ****** ****** ****** ****** ******
  18  ****** ****** ****** ****** ****** ****** ****** ****** ****** ******
      ****** ****** ****** ****** ****** ****** ****** ****** ****** ******
      ****** ****** ****** ****** ****** ****** ****** ****** ****** ******
      ****** ****** ****** ****** ****** ****** ****** ****** ****** ******
      ****** ****** ****** ****** ****** ****** ****** ****** ****** ******
      ****** ****** ****** ****** ****** ****** ****** ****** ****** ******
      ****** ****** ****** ****** ****** ****** ****** ****** ****** ******
      ****** ****** ****** ****** ****** ****** ****** ****** ****** ******
      ****** ****** ****** ****** ****** ****** ****** ****** ****** ******
      ****** ****** ****** ****** ****** ****** ****** ****** ****** ******
      ****** ****** ****** ****** ****** ****** ****** ****** ****** ******
      ****** ****** ****** ****** ****** ****** ****** ****** ****** ******
      ****** ****** ****** ****** ****** ****** ****** ****** ****** ******
      ****** ****** ****** ****** ****** ****** ****** ****** ****** ******
      ****** ****** ****** ****** ****** ****** ****** ****** ******
  19  ****** ****** ****** ****** ****** ****** ****** ****** ****** ******
      ****** ****** ****** ****** ****** ****** ****** ****** ****** ******
      ****** ****** ****** ****** ****** ****** ****** ****** ****** ******
      ****** ****** ****** ****** ****** ****** ****** ****** ****** ******
      ****** ****** ****** ****** ****** ****** ****** ****** ****** ******
      ****** ****** ****** ****** ****** ****** ****** ****** ****** ******
      ****** ****** ****** ****** ****** ****** ****** ****** ****** ******
      ****** ****** ****** ****** ****** ****** ****** ****** ****** ******
      ****** ****** ****** ****** ****** ****** ****** ****** ****** ******
      ****** ****** ****** ****** ****** ****** ****** ****** ****** ******
      ****** ****** ****** ****** ****** ****** ****** ****** ****** ******
      ****** ****** ****** ****** ****** ****** ****** ****** ****** ******
      ****** ****** ****** ****** ****** ****** ****** ****** ****** ******
      ****** ****** ****** ****** ****** ****** ****** ****** ****** ******
      ****** ****** ****** ****** ****** ****** ****** ****** ******
  20  ****** ****** ****** ****** ****** ****** ****** ****** ****** ******
      ****** ****** ****** ****** ****** ****** ****** ****** ****** ******
      ****** ****** ****** ****** ****** ****** ****** ****** ****** ******
      ****** ****** ****** ****** ****** ****** ****** ****** ****** ******
      ****** ****** ****** ****** ****** ****** ****** ****** ****** ******
      ****** ****** ****** ****** ****** ****** ****** ****** ****** ******
      ****** ****** ****** ****** ****** ****** ****** ****** ****** ******
      ****** ****** ****** ****** ****** ****** ****** ****** ****** ******
      ****** ****** ****** ****** ****** ****** ****** ****** ****** ******
      ****** ****** ****** ****** ****** ****** ****** ****** ****** ******
      ****** ****** ****** ****** ****** ****** ****** ****** ****** ******
      ****** ****** ****** ****** ****** ****** ****** ****** ****** ******
      ****** ****** ****** ****** ****** ****** ****** ****** ****** ******
      ****** ****** ****** ****** ****** ****** ****** ****** ****** ******
      ****** ****** ****** ****** ****** ****** ****** ****** ******
  21  ****** ****** ****** ****** ****** ****** ****** ****** ****** ******
      ****** ****** ****** ****** ****** ****** ****** ****** ****** ******
      ****** ****** ****** ****** ****** ****** ****** ****** ****** ******
      ****** ****** ****** ****** ****** ****** ****** ****** ****** ******
      ****** ****** ****** ****** ****** ****** ****** ****** ****** ******
      ****** ****** ****** ****** ****** ****** ****** ****** ****** ******
      ****** ****** ****** ****** ****** ****** ****** ****** ****** ******
      ****** ****** ****** ****** ****** ****** ****** ****** ****** ******
      ****** ****** ****** ****** ****** ****** ****** ****** ****** ******
      ****** ****** ****** ****** ****** ****** ****** ****** ****** ******
      ****** ****** ****** ****** ****** ****** ****** ****** ****** ******
      ****** ****** ****** ****** ****** ****** ****** ****** ****** ******
      ****** ****** ****** ****** ****** ****** ****** ****** ****** ******
      ****** ****** ****** ****** ****** ****** ****** ****** ****** ******
      ****** ****** ****** ****** ****** ****** ****** ****** ******
  22  ****** ****** ****** ****** ****** ****** ****** ****** ****** ******
      ****** ****** ****** ****** ****** ****** ****** ****** ****** ******
      ****** ****** ****** ****** ****** ****** ****** ****** ****** ******
      ****** ****** ****** ****** ****** ****** ****** ****** ****** ******
      ****** ****** ****** ****** ****** ****** ****** ****** ****** ******
      ****** ****** ****** ****** ****** ****** ****** ****** ****** ******
      ****** ****** ****** ****** ****** ****** ****** ****** ****** ******
      ****** ****** ****** ****** ****** ****** ****** ****** ****** ******
      ****** ****** ****** ****** ****** ****** ****** ****** ****** ******
      ****** ****** ****** ****** ****** ****** ****** ****** ****** ******
      ****** ****** ****** ****** ****** ****** ****** ****** ****** ******
      ****** ****** ****** ****** ****** ****** ****** ****** ****** ******
      ****** ****** ****** ****** ****** ****** ****** ****** ****** ******
      ****** ****** ****** ****** ****** ****** ****** ****** ****** ******
      ****** ****** ****** ****** ****** ****** ****** ****** ******
  23  ****** ****** ****** ****** ****** ****** ****** ****** ****** ******
      ****** ****** ****** ****** ****** ****** ****** ****** ****** ******
      ****** ****** ****** ****** ****** ****** ****** ****** ****** ******
      ****** ****** ****** ****** ****** ****** ****** ****** ****** ******
      ****** ****** ****** ****** ****** ****** ****** ****** ****** ******
      ****** ****** ****** ****** ****** ****** ****** ****** ****** ******
      ****** ****** ****** ****** ****** ****** ****** ****** ****** ******
      ****** ****** ****** ****** ****** ****** ****** ****** ****** ******
      ****** ****** ****** ****** ****** ****** ****** ****** ****** ******
      ****** ****** ****** ****** ****** ****** ****** ****** ****** ******
      ****** ****** ****** ****** ****** ****** ****** ****** ****** ******
      ****** ****** ****** ****** ****** ****** ****** ****** ****** ******
      ****** ****** ****** ****** ****** ****** ****** ****** ****** ******
      ****** ****** ****** ****** ****** ****** ****** ****** ****** ******
      ****** ****** ****** ****** ****** ****** ****** ****** ******
  24  ****** ****** ****** ****** ****** ****** ****** ****** ****** ******
      ****** ****** ****** ****** ****** ****** ****** ****** ****** ******
      ****** ****** ****** ****** ****** ****** ****** ****** ****** ******
      ****** ****** ****** ****** ****** ****** ****** ****** ****** ******
      ****** ****** ****** ****** ****** ****** ****** ****** ****** ******
      ****** ****** ****** ****** ****** ****** ****** ****** ****** ******
      ****** ****** ****** ****** ****** ****** ****** ****** ****** ******
      ****** ****** ****** ****** ****** ****** ****** ****** ****** ******
      ****** ****** ****** ****** ****** ****** ****** ****** ****** ******
      ****** ****** ****** ****** ****** ****** ****** ****** ****** ******
      ****** ****** ****** ****** ****** ****** ****** ****** ****** ******
      ****** ****** ****** ****** ****** ****** ****** ****** ****** ******
      ****** ****** ****** ****** ****** ****** ****** ****** ****** ******
      ****** ****** ****** ****** ****** ****** ****** ****** ****** ******
      ****** ****** ****** ****** ****** ****** ****** ****** ******
  25  ****** ****** ****** ****** ****** ****** ****** ****** ****** ******
      ****** ****** ****** ****** ****** ****** ****** ****** ****** ******
      ****** ****** ****** ****** ****** ****** ****** ****** ****** ******
      ****** ****** ****** ****** ****** ****** ****** ****** ****** ******
      ****** ****** ****** ****** ****** ****** ****** ****** ****** ******
      ****** ****** ****** ****** ****** ****** ****** ****** ****** ******
      ****** ****** ****** ****** ****** ****** ****** ****** ****** ******
      ****** ****** ****** ****** ****** ****** ****** ****** ****** ******
      ****** ****** ****** ****** ****** ****** ****** ****** ****** ******
      ****** ****** ****** ****** ****** ****** ****** ****** ****** ******
      ****** ****** ****** ****** ****** ****** ****** ****** ****** ******
      ****** ****** ****** ****** ****** ****** ****** ****** ****** ******
      ****** ****** ****** ****** ****** ****** ****** ****** ****** ******
      ****** ****** ****** ****** ****** ****** ****** ****** ****** ******
      ****** ****** ****** ****** ****** ****** ****** ****** ******
  26  ****** ****** ****** ****** ****** ****** ****** ****** ****** ******
      ****** ****** ****** ****** ****** ****** ****** ****** ****** ******
      ****** ****** ****** ****** ****** ****** ****** ****** ****** ******
      ****** ****** ****** ****** ****** ****** ****** ****** ****** ******
      ****** ****** ****** ****** ****** ****** ****** ****** ****** ******
      ****** ****** ****** ****** ****** ****** ****** ****** ****** ******
      ****** ****** ****** ****** ****** ****** ****** ****** ****** ******
      ****** ****** ****** ****** ****** ****** ****** ****** ****** ******
      ****** ****** ****** ****** ****** ****** ****** ****** ****** ******
      ****** ****** ****** ****** ****** ****** ****** ****** ****** ******
[...]
      ****** ****** ****** ****** ****** ****** ****** ****** ****** ******
      ****** ****** ****** ****** ****** ****** ****** ****** ******
 129  ****** ****** ****** ****** ****** ****** ****** ****** ****** ******
      ****** ****** ****** ****** ****** ****** ****** ****** ****** ******
      ****** ****** ****** ****** ****** ****** ****** ****** ****** ******
      ****** ****** ****** ****** ****** ****** ****** ****** ****** ******
      ****** ****** ****** ****** ****** ****** ****** ****** ****** ******
      ****** ****** ****** ****** ****** ****** ****** ****** ****** ******
      ****** ****** ****** ****** ****** ****** ****** ****** ****** ******
      ****** ****** ****** ****** ****** ****** ****** ****** ****** ******
      ****** ****** ****** ****** ****** ****** ****** ****** ****** ******
      ****** ****** ****** ****** ****** ****** ****** ****** ****** ******
      ****** ****** ****** ****** ****** ****** ****** ****** ****** ******
      ****** ****** ****** ****** ****** ****** ****** ****** ****** ******
      ****** ****** ****** ****** ****** ****** ****** ****** ****** ******
      ****** ****** ****** ****** ****** ****** ****** ****** ****** ******
      ****** ****** ****** ****** ****** ****** ****** ****** ******
 130  ****** ****** ****** ****** ****** ****** ****** ****** ****** ******
      ****** ****** ****** ****** ****** ****** ****** ****** ****** ******
      ****** ****** ****** ****** ****** ****** ****** ****** ****** ******
      ****** ****** ****** ****** ****** ****** ****** ****** ****** ******
      ****** ****** ****** ****** ****** ****** ****** ****** ****** ******
      ****** ****** ****** ****** ****** ****** ****** ****** ****** ******
      ****** ****** ****** ****** ****** ****** ****** ****** ****** ******
      ****** ****** ****** ****** ****** ****** ****** ****** ****** ******
      ****** ****** ****** ****** ****** ****** ****** ****** ****** ******
      ****** ****** ****** ****** ****** ****** ****** ****** ****** ******
      ****** ****** ****** ****** ****** ****** ****** ****** ****** ******
      ****** ****** ****** ****** ****** ****** ****** ****** ****** ******
      ****** ****** ****** ****** ****** ****** ****** ****** ****** ******
      ****** ****** ****** ****** ****** ****** ****** ****** ****** ******
      ****** ****** ****** ****** ****** ****** ****** ****** ******
 131  ****** ****** ****** ****** ****** ****** ****** ****** ****** ******
      ****** ****** ****** ****** ****** ****** ****** ****** ****** ******
      ****** ****** ****** ****** ****** ****** ****** ****** ****** ******
      ****** ****** ****** ****** ****** ****** ****** ****** ****** ******
      ****** ****** ****** ****** ****** ****** ****** ****** ****** ******
      ****** ****** ****** ****** ****** ****** ****** ****** ****** ******
      ****** ****** ****** ****** ****** ****** ****** ****** ****** ******
      ****** ****** ****** ****** ****** ****** ****** ****** ****** ******
      ****** ****** ****** ****** ****** ****** ****** ****** ****** ******
      ****** ****** ****** ****** ****** ****** ****** ****** ****** ******
      ****** ****** ****** ****** ****** ****** ****** ****** ****** ******
      ****** ****** ****** ****** ****** ****** ****** ****** ****** ******
      ****** ****** ****** ****** ****** ****** ****** ****** ****** ******
      ****** ****** ****** ****** ****** ****** ****** ****** ****** ******
      ****** ****** ****** ****** ****** ****** ****** ****** ******
 132  ****** ****** ****** ****** ****** ****** ****** ****** ****** ******
      ****** ****** ****** ****** ****** ****** ****** ****** ****** ******
      ****** ****** ****** ****** ****** ****** ****** ****** ****** ******
      ****** ****** ****** ****** ****** ****** ****** ****** ****** ******
      ****** ****** ****** ****** ****** ****** ****** ****** ****** ******
      ****** ****** ****** ****** ****** ****** ****** ****** ****** ******
      ****** ****** ****** ****** ****** ****** ****** ****** ****** ******
      ****** ****** ****** ****** ****** ****** ****** ****** ****** ******
      ****** ****** ****** ****** ****** ****** ****** ****** ****** ******
      ****** ****** ****** ****** ****** ****** ****** ****** ****** ******
      ****** ****** ****** ****** ****** ****** ****** ****** ****** ******
      ****** ****** ****** ****** ****** ****** ****** ****** ****** ******
      ****** ****** ****** ****** ****** ****** ****** ****** ****** ******
      ****** ****** ****** ****** ****** ****** ****** ****** ****** ******
      ****** ****** ****** ****** ****** ****** ****** ****** ******
 133  ****** ****** ****** ****** ****** ****** ****** ****** ****** ******
      ****** ****** ****** ****** ****** ****** ****** ****** ****** ******
      ****** ****** ****** ****** ****** ****** ****** ****** ****** ******
      ****** ****** ****** ****** ****** ****** ****** ****** ****** ******
      ****** ****** ****** ****** ****** ****** ****** ****** ****** ******
      ****** ****** ****** ****** ****** ****** ****** ****** ****** ******
      ****** ****** ****** ****** ****** ****** ****** ****** ****** ******
      ****** ****** ****** ****** ****** ****** ****** ****** ****** ******
      ****** ****** ****** ****** ****** ****** ****** ****** ****** ******
      ****** ****** ****** ****** ****** ****** ****** ****** ****** ******
      ****** ****** ****** ****** ****** ****** ****** ****** ****** ******
      ****** ****** ****** ****** ****** ****** ****** ****** ****** ******
      ****** ****** ****** ****** ****** ****** ****** ****** ****** ******
      ****** ****** ****** ****** ****** ****** ****** ****** ****** ******
      ****** ****** ****** ****** ****** ****** ****** ****** ******
 134  ****** ****** ****** ****** ****** ****** ****** ****** ****** ******
      ****** ****** ****** ****** ****** ****** ****** ****** ****** ******
      ****** ****** ****** ****** ****** ****** ****** ****** ****** ******
      ****** ****** ****** ****** ****** ****** ****** ****** ****** ******
      ****** ****** ****** ****** ****** ****** ****** ****** ****** ******
      ****** ****** ****** ****** ****** ****** ****** ****** ****** ******
      ****** ****** ****** ****** ****** ****** ****** ****** ****** ******
      ****** ****** ****** ****** ****** ****** ****** ****** ****** ******
      ****** ****** ****** ****** ****** ****** ****** ****** ****** ******
      ****** ****** ****** ****** ****** ****** ****** ****** ****** ******
      ****** ****** ****** ****** ****** ****** ****** ****** ****** ******
      ****** ****** ****** ****** ****** ****** ****** ****** ****** ******
      ****** ****** ****** ****** ****** ****** ****** ****** ****** ******
      ****** ****** ****** ****** ****** ****** ****** ****** ****** ******
      ****** ****** ****** ****** ****** ****** ****** ****** ******
 135  ****** ****** ****** ****** ****** ****** ****** ****** ****** ******
      ****** ****** ****** ****** ****** ****** ****** ****** ****** ******
      ****** ****** ****** ****** ****** ****** ****** ****** ****** ******
      ****** ****** ****** ****** ****** ****** ****** ****** ****** ******
      ****** ****** ****** ****** ****** ****** ****** ****** ****** ******
      ****** ****** ****** ****** ****** ****** ****** ****** ****** ******
      ****** ****** ****** ****** ****** ****** ****** ****** ****** ******
      ****** ****** ****** ****** ****** ****** ****** ****** ****** ******
      ****** ****** ****** ****** ****** ****** ****** ****** ****** ******
      ****** ****** ****** ****** ****** ****** ****** ****** ****** ******
      ****** ****** ****** ****** ****** ****** ****** ****** ****** ******
      ****** ****** ****** ****** ****** ****** ****** ****** ****** ******
      ****** ****** ****** ****** ****** ****** ****** ****** ****** ******
      ****** ****** ****** ****** ****** ****** ****** ****** ****** ******
      ****** ****** ****** ****** ****** ****** ****** ****** ******
 136  ****** ****** ****** ****** ****** ****** ****** ****** ****** ******
      ****** ****** ****** ****** ****** ****** ****** ****** ****** ******
      ****** ****** ****** ****** ****** ****** ****** ****** ****** ******
      ****** ****** ****** ****** ****** ****** ****** ****** ****** ******
      ****** ****** ****** ****** ****** ****** ****** ****** ****** ******
      ****** ****** ****** ****** ****** ****** ****** ****** ****** ******
      ****** ****** ****** ****** ****** ****** ****** ****** ****** ******
      ****** ****** ****** ****** ****** ****** ****** ****** ****** ******
      ****** ****** ****** ****** ****** ****** ****** ****** ****** ******
      ****** ****** ****** ****** ****** ****** ****** ****** ****** ******
      ****** ****** ****** ****** ****** ****** ****** ****** ****** ******
      ****** ****** ****** ****** ****** ****** ****** ****** ****** ******
      ****** ****** ****** ****** ****** ****** ****** ****** ****** ******
      ****** ****** ****** ****** ****** ****** ****** ****** ****** ******
      ****** ****** ****** ****** ****** ****** ****** ****** ******
 137  ****** ****** ****** ****** ****** ****** ****** ****** ****** ******
      ****** ****** ****** ****** ****** ****** ****** ****** ****** ******
      ****** ****** ****** ****** ****** ****** ****** ****** ****** ******
      ****** ****** ****** ****** ****** ****** ****** ****** ****** ******
      ****** ****** ****** ****** ****** ****** ****** ****** ****** ******
      ****** ****** ****** ****** ****** ****** ****** ****** ****** ******
      ****** ****** ****** ****** ****** ****** ****** ****** ****** ******
      ****** ****** ****** ****** ****** ****** ****** ****** ****** ******
      ****** ****** ****** ****** ****** ****** ****** ****** ****** ******
      ****** ****** ****** ****** ****** ****** ****** ****** ****** ******
      ****** ****** ****** ****** ****** ****** ****** ****** ****** ******
      ****** ****** ****** ****** ****** ****** ****** ****** ****** ******
      ****** ****** ****** ****** ****** ****** ****** ****** ****** ******
      ****** ****** ****** ****** ****** ****** ****** ****** ****** ******
      ****** ****** ****** ****** ****** ****** ****** ****** ******
 138  ****** ****** ****** ****** ****** ****** ****** ****** ****** ******
      ****** ****** ****** ****** ****** ****** ****** ****** ****** ******
      ****** ****** ****** ****** ****** ****** ****** ****** ****** ******
      ****** ****** ****** ****** ****** ****** ****** ****** ****** ******
      ****** ****** ****** ****** ****** ****** ****** ****** ****** ******
      ****** ****** ****** ****** ****** ****** ****** ****** ****** ******
      ****** ****** ****** ****** ****** ****** ****** ****** ****** ******
      ****** ****** ****** ****** ****** ****** ****** ****** ****** ******
      ****** ****** ****** ****** ****** ****** ****** ****** ****** ******
      ****** ****** ****** ****** ****** ****** ****** ****** ****** ******
      ****** ****** ****** ****** ****** ****** ****** ****** ****** ******
      ****** ****** ****** ****** ****** ****** ****** ****** ****** ******
      ****** ****** ****** ****** ****** ****** ****** ****** ****** ******
      ****** ****** ****** ****** ****** ****** ****** ****** ****** ******
      ****** ****** ****** ****** ****** ****** ****** ****** ******

 HEAD WILL BE SAVED ON UNIT   51 AT END OF TIME STEP    1, STRESS PERIOD    1
1
  VOLUMETRIC BUDGET FOR ENTIRE MODEL AT END OF TIME STEP    1, STRESS PERIOD   1
  ------------------------------------------------------------------------------

     CUMULATIVE VOLUMES      L**3       RATES FOR THIS TIME STEP      L**3/T
     ------------------                 ------------------------

           IN:                                      IN:
           ---                                      ---
             STORAGE     =           0.0000               STORAGE     =           0.0000
       CONSTANT HEAD     =           0.0000         CONSTANT HEAD     =           0.0000
      STREAM LEAKAGE     =           0.0000        STREAM LEAKAGE     =           0.0000
        UZF RECHARGE     =      540528.6875          UZF RECHARGE     =      540528.6875
               GW ET     =           0.0000                 GW ET     =           0.0000
     SURFACE LEAKAGE     =           0.0000       SURFACE LEAKAGE     =           0.0000

                TOTAL IN =      540528.6875                  TOTAL IN =      540528.6875

          OUT:                                     OUT:
          ----                                     ----
             STORAGE     =           0.0000               STORAGE     =           0.0000
       CONSTANT HEAD     =           0.0000         CONSTANT HEAD     =           0.0000
      STREAM LEAKAGE     =       12221.5049        STREAM LEAKAGE     =       12221.5049
        UZF RECHARGE     =           0.0000          UZF RECHARGE     =           0.0000
               GW ET     =           0.0000                 GW ET     =           0.0000
     SURFACE LEAKAGE     =      528307.5625       SURFACE LEAKAGE     =      528307.5625

               TOTAL OUT =      540529.0625                 TOTAL OUT =      540529.0625

                IN - OUT =          -0.3750                  IN - OUT =          -0.3750

     PERCENT DISCREPANCY =          -0.00         PERCENT DISCREPANCY =          -0.00






         TIME SUMMARY AT END OF TIME STEP    1 IN STRESS PERIOD    1
                    SECONDS     MINUTES      HOURS       DAYS        YEARS
                    -----------------------------------------------------------
   TIME STEP LENGTH  86400.      1440.0      24.000      1.0000     2.73785E-03
 STRESS PERIOD TIME  86400.      1440.0      24.000      1.0000     2.73785E-03
         TOTAL TIME  86400.      1440.0      24.000      1.0000     2.73785E-03
1
1
                            STRESS PERIOD NO.    2, LENGTH =   5356.000    
                            -----------------------------------------------

                              NUMBER OF TIME STEPS =  5356

                               MULTIPLIER FOR DELT =     1.000

                            INITIAL TIME STEP SIZE =   1.000000    

 REUSING STREAM SEGMENT DATA FROM LAST STRESS PERIOD
 USING INFILTRATION RATE FROM PREVIOUS STRESS 
 PERIOD.CURRENT PERIOD IS:            2

    ------------------------------------------------
       NWT REQUIRED            6 OUTER ITERATIONS 
       AND A TOTAL OF          9 INNER ITERATIONS.
    ------------------------------------------------

 NO OUTPUT CONTROL FOR STRESS PERIOD    2   TIME STEP    1

    ------------------------------------------------
       NWT REQUIRED            4 OUTER ITERATIONS 
       AND A TOTAL OF          4 INNER ITERATIONS.
    ------------------------------------------------

 NO OUTPUT CONTROL FOR STRESS PERIOD    2   TIME STEP    2

    ------------------------------------------------
       NWT REQUIRED            4 OUTER ITERATIONS 
       AND A TOTAL OF          4 INNER ITERATIONS.
    ------------------------------------------------

 NO OUTPUT CONTROL FOR STRESS PERIOD    2   TIME STEP    3

    ------------------------------------------------
       NWT REQUIRED            4 OUTER ITERATIONS 
       AND A TOTAL OF          4 INNER ITERATIONS.
    ------------------------------------------------

 NO OUTPUT CONTROL FOR STRESS PERIOD    2   TIME STEP    4

    ------------------------------------------------
       NWT REQUIRED            5 OUTER ITERATIONS 
       AND A TOTAL OF          5 INNER ITERATIONS.
    ------------------------------------------------

 NO OUTPUT CONTROL FOR STRESS PERIOD    2   TIME STEP    5

    ------------------------------------------------
       NWT REQUIRED            5 OUTER ITERATIONS 
       AND A TOTAL OF          5 INNER ITERATIONS.
    ------------------------------------------------

 NO OUTPUT CONTROL FOR STRESS PERIOD    2   TIME STEP    6

    ------------------------------------------------
       NWT REQUIRED            9 OUTER ITERATIONS 
       AND A TOTAL OF          9 INNER ITERATIONS.
    ------------------------------------------------

 NO OUTPUT CONTROL FOR STRESS PERIOD    2   TIME STEP    7

    ------------------------------------------------
       NWT REQUIRED            9 OUTER ITERATIONS 
       AND A TOTAL OF          9 INNER ITERATIONS.
    ------------------------------------------------

 NO OUTPUT CONTROL FOR STRESS PERIOD    2   TIME STEP    8

    ------------------------------------------------
       NWT REQUIRED           13 OUTER ITERATIONS 
       AND A TOTAL OF         13 INNER ITERATIONS.
    ------------------------------------------------

 NO OUTPUT CONTROL FOR STRESS PERIOD    2   TIME STEP    9

    ------------------------------------------------
       NWT REQUIRED           11 OUTER ITERATIONS 
       AND A TOTAL OF         11 INNER ITERATIONS.
    ------------------------------------------------

 NO OUTPUT CONTROL FOR STRESS PERIOD    2   TIME STEP   10

    ------------------------------------------------
       NWT REQUIRED           13 OUTER ITERATIONS 
       AND A TOTAL OF         13 INNER ITERATIONS.
    ------------------------------------------------

 NO OUTPUT CONTROL FOR STRESS PERIOD    2   TIME STEP   11

    ------------------------------------------------
       NWT REQUIRED           13 OUTER ITERATIONS 
       AND A TOTAL OF         13 INNER ITERATIONS.
    ------------------------------------------------

 NO OUTPUT CONTROL FOR STRESS PERIOD    2   TIME STEP   12

    ------------------------------------------------
       NWT REQUIRED           13 OUTER ITERATIONS 
       AND A TOTAL OF         13 INNER ITERATIONS.
    ------------------------------------------------

 NO OUTPUT CONTROL FOR STRESS PERIOD    2   TIME STEP   13

    ------------------------------------------------
       NWT REQUIRED           13 OUTER ITERATIONS 
       AND A TOTAL OF         13 INNER ITERATIONS.
    ------------------------------------------------

 NO OUTPUT CONTROL FOR STRESS PERIOD    2   TIME STEP   14

    ------------------------------------------------
       NWT REQUIRED           14 OUTER ITERATIONS 
       AND A TOTAL OF         14 INNER ITERATIONS.
    ------------------------------------------------

 NO OUTPUT CONTROL FOR STRESS PERIOD    2   TIME STEP   15

    ------------------------------------------------
       NWT REQUIRED           14 OUTER ITERATIONS 
       AND A TOTAL OF         14 INNER ITERATIONS.
    ------------------------------------------------

 NO OUTPUT CONTROL FOR STRESS PERIOD    2   TIME STEP   16

    ------------------------------------------------
       NWT REQUIRED           14 OUTER ITERATIONS 
       AND A TOTAL OF         14 INNER ITERATIONS.
    ------------------------------------------------

 NO OUTPUT CONTROL FOR STRESS PERIOD    2   TIME STEP   17

    ------------------------------------------------
       NWT REQUIRED           15 OUTER ITERATIONS 
       AND A TOTAL OF         15 INNER ITERATIONS.
    ------------------------------------------------

 NO OUTPUT CONTROL FOR STRESS PERIOD    2   TIME STEP   18

    ------------------------------------------------
       NWT REQUIRED           15 OUTER ITERATIONS 
       AND A TOTAL OF         15 INNER ITERATIONS.
    ------------------------------------------------

 NO OUTPUT CONTROL FOR STRESS PERIOD    2   TIME STEP   19

    ------------------------------------------------
       NWT REQUIRED           14 OUTER ITERATIONS 
       AND A TOTAL OF         14 INNER ITERATIONS.
    ------------------------------------------------

 NO OUTPUT CONTROL FOR STRESS PERIOD    2   TIME STEP   20

    ------------------------------------------------
       NWT REQUIRED           14 OUTER ITERATIONS 
